mol19
     RDKit          3D

 35 37  0  0  1  0  0  0  0  0999 V2000
    2.1488   -0.0592   -0.0543 C   0  0  1  0  0  0  0  0  0  0  0  0
    2.1061    1.3371    0.4571 C   0  0  0  0  0  0  0  0  0  0  0  0
    3.1392    2.0340   -0.2969 N   0  0  0  0  0  0  0  0  0  0  0  0
    4.2072    1.0915   -0.7096 C   0  0  2  0  0  0  0  0  0  0  0  0
    5.0549    1.3008   -1.9971 C   0  0  0  0  0  0  0  0  0  0  0  0
    6.1855    0.8378   -2.1099 O   0  0  0  0  0  0  0  0  0  0  0  0
    4.4608    1.9881   -3.0308 N   0  0  0  0  0  0  0  0  0  0  0  0
    5.2132    2.4515   -4.2008 C   0  0  1  0  0  0  0  0  0  0  0  0
    5.1840    1.3608   -5.2978 C   0  0  0  0  0  0  0  0  0  0  0  0
    5.7658    1.7874   -6.6455 C   0  0  2  0  0  0  0  0  0  0  0  0
    5.7552    0.6878   -7.7128 C   0  0  0  0  0  0  0  0  0  0  0  0
    6.7852    1.2002   -8.7057 C   0  0  0  0  0  0  0  0  0  0  0  0
    7.7574    1.8250   -7.8577 N   0  0  0  0  0  0  0  0  0  0  0  0
    7.2323    2.1714   -6.6293 C   0  0  0  0  0  0  0  0  0  0  0  0
    7.8254    2.7493   -5.7378 O   0  0  0  0  0  0  0  0  0  0  0  0
    4.7338    3.7771   -4.7693 C   0  0  0  0  0  0  0  0  0  0  0  0
    4.3362    4.8769   -5.2409 N   0  0  0  0  0  0  0  0  0  0  0  0
    3.4507   -0.2414   -0.7841 C   0  0  1  0  0  0  0  0  0  0  0  0
    3.1010   -1.1480    0.3953 C   0  0  0  0  0  0  0  0  0  0  0  0
    3.8754   -1.0389    1.6814 C   0  0  0  0  0  0  0  0  0  0  0  0
    2.6477   -2.5621    0.1008 C   0  0  0  0  0  0  0  0  0  0  0  0
    3.2182    3.4067   -0.0701 C   0  0  0  0  0  0  0  0  0  0  0  0
    2.5054    3.9340    0.7913 O   0  0  0  0  0  0  0  0  0  0  0  0
    3.9803    4.2924   -1.1011 C   0  0  1  0  0  0  0  0  0  0  0  0
    3.0285    4.7458   -2.1670 N   0  0  0  0  0  0  0  0  0  0  0  0
    2.1131    3.9628   -2.8600 C   0  0  0  0  0  0  0  0  0  0  0  0
    1.9578    2.7600   -2.6336 O   0  0  0  0  0  0  0  0  0  0  0  0
    1.3355    4.6633   -4.0040 C   0  0  0  0  0  0  0  0  0  0  0  0
    1.8119    5.9081   -4.2725 F   0  0  0  0  0  0  0  0  0  0  0  0
    1.4065    3.9448   -5.1591 F   0  0  0  0  0  0  0  0  0  0  0  0
    0.0141    4.8039   -3.7181 F   0  0  0  0  0  0  0  0  0  0  0  0
    4.6898    5.5448   -0.4566 C   0  0  0  0  0  0  0  0  0  0  0  0
    5.5339    5.1462    0.7727 C   0  0  0  0  0  0  0  0  0  0  0  0
    5.6752    6.1682   -1.4789 C   0  0  0  0  0  0  0  0  0  0  0  0
    3.6796    6.6360   -0.0493 C   0  0  0  0  0  0  0  0  0  0  0  0
  1  2  1  1
  1 18  1  0
  1 19  1  0
  2  3  1  0
  3  4  1  0
  3 22  1  0
  4 18  1  0
  4  5  1  6
  5  6  2  0
  5  7  1  0
  7  8  1  0
  8  9  1  6
  8 16  1  0
 10  9  1  1
 10 11  1  0
 10 14  1  0
 11 12  1  0
 12 13  1  0
 13 14  1  0
 14 15  2  0
 16 17  3  0
 18 19  1  1
 19 20  1  0
 19 21  1  0
 22 23  2  0
 22 24  1  0
 24 25  1  6
 24 32  1  0
 25 26  1  0
 26 27  2  0
 26 28  1  0
 28 29  1  0
 28 30  1  0
 28 31  1  0
 32 33  1  0
 32 34  1  0
 32 35  1  0
M  END
$$$$
