mol14
     RDKit          3D

 38 42  0  0  0  0  0  0  0  0999 V2000
    1.2541    0.4722    0.0261 C   0  0  0  0  0  0  0  0  0  0  0  0
    2.7087    0.1565    0.0688 C   0  0  0  0  0  0  0  0  0  0  0  0
    3.6988    1.0220    0.1289 N   0  0  0  0  0  0  0  0  0  0  0  0
    4.8842    0.2897    0.0592 C   0  0  0  0  0  0  0  0  0  0  0  0
    6.1833    0.9879    0.0117 C   0  0  0  0  0  0  0  0  0  0  0  0
    7.2321    0.4101   -0.2473 O   0  0  0  0  0  0  0  0  0  0  0  0
    6.0938    2.3402    0.3302 N   0  0  0  0  0  0  0  0  0  0  0  0
    7.1992    3.2260    0.3850 C   0  0  0  0  0  0  0  0  0  0  0  0
    7.3187    4.1483    1.4395 C   0  0  0  0  0  0  0  0  0  0  0  0
    6.1795    4.1698    2.7402 Cl  0  0  0  0  0  0  0  0  0  0  0  0
    8.4110    5.0235    1.5071 C   0  0  0  0  0  0  0  0  0  0  0  0
    9.3686    5.0210    0.4927 C   0  0  0  0  0  0  0  0  0  0  0  0
    9.2351    4.1347   -0.5748 C   0  0  0  0  0  0  0  0  0  0  0  0
   10.3897    4.1734   -1.8518 Cl  0  0  0  0  0  0  0  0  0  0  0  0
    8.1685    3.2310   -0.6263 C   0  0  0  0  0  0  0  0  0  0  0  0
    4.5909   -1.0636    0.0445 C   0  0  0  0  0  0  0  0  0  0  0  0
    3.1928   -1.1328    0.0391 N   0  0  0  0  0  0  0  0  0  0  0  0
    2.4822   -2.3498    0.0166 C   0  0  0  0  0  0  0  0  0  0  0  0
    1.2648   -2.2829    0.0597 O   0  0  0  0  0  0  0  0  0  0  0  0
    3.2552   -3.5626   -0.0150 C   0  0  0  0  0  0  0  0  0  0  0  0
    2.9020   -4.8992   -0.0582 C   0  0  0  0  0  0  0  0  0  0  0  0
    4.0475   -5.6724    0.0125 N   0  0  0  0  0  0  0  0  0  0  0  0
    5.0773   -4.8403    0.0245 C   0  0  0  0  0  0  0  0  0  0  0  0
    6.5014   -5.2679    0.0374 C   0  0  0  0  0  0  0  0  0  0  0  0
    4.6492   -3.5250    0.0174 N   0  0  0  0  0  0  0  0  0  0  0  0
    5.3743   -2.2974    0.0425 C   0  0  0  0  0  0  0  0  0  0  0  0
    6.5924   -2.3735    0.0870 O   0  0  0  0  0  0  0  0  0  0  0  0
    1.5583   -5.4886   -0.1747 C   0  0  0  0  0  0  0  0  0  0  0  0
    0.5619   -4.8224   -0.4355 O   0  0  0  0  0  0  0  0  0  0  0  0
    1.5334   -6.8469    0.0806 N   0  0  0  0  0  0  0  0  0  0  0  0
    0.3526   -7.6255    0.0632 C   0  0  0  0  0  0  0  0  0  0  0  0
    0.1374   -8.5972    1.0521 C   0  0  0  0  0  0  0  0  0  0  0  0
    1.2340   -8.7754    2.3777 Cl  0  0  0  0  0  0  0  0  0  0  0  0
   -1.0168   -9.3840    1.0347 C   0  0  0  0  0  0  0  0  0  0  0  0
   -1.9477   -9.2343    0.0063 C   0  0  0  0  0  0  0  0  0  0  0  0
   -1.7316   -8.2823   -0.9898 C   0  0  0  0  0  0  0  0  0  0  0  0
   -2.8607   -8.1352   -2.2804 Cl  0  0  0  0  0  0  0  0  0  0  0  0
   -0.5990   -7.4670   -0.9571 C   0  0  0  0  0  0  0  0  0  0  0  0
  1  2  1  0
  2  3  2  0
  2 17  1  0
  3  4  1  0
  4  5  1  0
  4 16  2  0
  5  6  2  0
  5  7  1  0
  7  8  1  0
  8  9  2  0
  8 15  1  0
  9 10  1  0
  9 11  1  0
 11 12  2  0
 12 13  1  0
 13 14  1  0
 13 15  2  0
 16 17  1  0
 16 26  1  0
 17 18  1  0
 18 19  2  0
 18 20  1  0
 20 21  2  0
 20 25  1  0
 21 22  1  0
 21 28  1  0
 22 23  2  0
 23 24  1  0
 23 25  1  0
 25 26  1  0
 26 27  2  0
 28 29  2  0
 28 30  1  0
 30 31  1  0
 31 32  2  0
 31 38  1  0
 32 33  1  0
 32 34  1  0
 34 35  2  0
 35 36  1  0
 36 37  1  0
 36 38  2  0
M  END
$$$$
