mol12
     RDKit          3D

 36 40  0  0  0  0  0  0  0  0999 V2000
    1.2257    0.4860    0.0815 C   0  0  0  0  0  0  0  0  0  0  0  0
    2.6880    0.1937    0.1106 C   0  0  0  0  0  0  0  0  0  0  0  0
    3.6691    1.0736    0.1637 N   0  0  0  0  0  0  0  0  0  0  0  0
    4.8662    0.3505    0.1258 C   0  0  0  0  0  0  0  0  0  0  0  0
    6.1670    1.0587    0.1054 C   0  0  0  0  0  0  0  0  0  0  0  0
    7.2303    0.4643   -0.0701 O   0  0  0  0  0  0  0  0  0  0  0  0
    6.0670    2.4251    0.3408 N   0  0  0  0  0  0  0  0  0  0  0  0
    7.1868    3.2966    0.4252 C   0  0  0  0  0  0  0  0  0  0  0  0
    7.3274    4.1956    1.4945 C   0  0  0  0  0  0  0  0  0  0  0  0
    6.2288    4.1743    2.8289 Cl  0  0  0  0  0  0  0  0  0  0  0  0
    8.4203    5.0757    1.5556 C   0  0  0  0  0  0  0  0  0  0  0  0
    9.3640    5.0936    0.5279 C   0  0  0  0  0  0  0  0  0  0  0  0
    9.2240    4.2176   -0.5456 C   0  0  0  0  0  0  0  0  0  0  0  0
    8.1516    3.3139   -0.5916 C   0  0  0  0  0  0  0  0  0  0  0  0
    4.5775   -1.0160    0.1035 C   0  0  0  0  0  0  0  0  0  0  0  0
    3.1888   -1.0903    0.0835 N   0  0  0  0  0  0  0  0  0  0  0  0
    2.4788   -2.3041    0.0524 C   0  0  0  0  0  0  0  0  0  0  0  0
    1.2612   -2.2422    0.0524 O   0  0  0  0  0  0  0  0  0  0  0  0
    3.2480   -3.5202    0.0437 C   0  0  0  0  0  0  0  0  0  0  0  0
    2.8796   -4.8538    0.0252 C   0  0  0  0  0  0  0  0  0  0  0  0
    4.0232   -5.6306    0.0825 N   0  0  0  0  0  0  0  0  0  0  0  0
    5.0569   -4.8055    0.0848 C   0  0  0  0  0  0  0  0  0  0  0  0
    6.4738   -5.2532    0.0974 C   0  0  0  0  0  0  0  0  0  0  0  0
    4.6303   -3.4852    0.0733 N   0  0  0  0  0  0  0  0  0  0  0  0
    5.3676   -2.2493    0.1021 C   0  0  0  0  0  0  0  0  0  0  0  0
    6.5847   -2.3351    0.1296 O   0  0  0  0  0  0  0  0  0  0  0  0
    1.5253   -5.4428   -0.0500 C   0  0  0  0  0  0  0  0  0  0  0  0
    0.5157   -4.7709   -0.2174 O   0  0  0  0  0  0  0  0  0  0  0  0
    1.5150   -6.8142    0.1342 N   0  0  0  0  0  0  0  0  0  0  0  0
    0.3290   -7.5872    0.1466 C   0  0  0  0  0  0  0  0  0  0  0  0
    0.1110   -8.5465    1.1468 C   0  0  0  0  0  0  0  0  0  0  0  0
    1.1791   -8.6800    2.5000 Cl  0  0  0  0  0  0  0  0  0  0  0  0
   -1.0294   -9.3576    1.1197 C   0  0  0  0  0  0  0  0  0  0  0  0
   -1.9470   -9.2387    0.0757 C   0  0  0  0  0  0  0  0  0  0  0  0
   -1.7438   -8.2830   -0.9181 C   0  0  0  0  0  0  0  0  0  0  0  0
   -0.6211   -7.4487   -0.8739 C   0  0  0  0  0  0  0  0  0  0  0  0
  1  2  1  0
  2  3  2  0
  2 16  1  0
  3  4  1  0
  4  5  1  0
  4 15  2  0
  5  6  2  0
  5  7  1  0
  7  8  1  0
  8  9  2  0
  8 14  1  0
  9 10  1  0
  9 11  1  0
 11 12  2  0
 12 13  1  0
 13 14  2  0
 15 16  1  0
 15 25  1  0
 16 17  1  0
 17 18  2  0
 17 19  1  0
 19 20  2  0
 19 24  1  0
 20 21  1  0
 20 27  1  0
 21 22  2  0
 22 23  1  0
 22 24  1  0
 24 25  1  0
 25 26  2  0
 27 28  2  0
 27 29  1  0
 29 30  1  0
 30 31  2  0
 30 36  1  0
 31 32  1  0
 31 33  1  0
 33 34  2  0
 34 35  1  0
 35 36  2  0
M  END
$$$$
