mol18
     RDKit          3D

 32 36  0  0  0  0  0  0  0  0999 V2000
    2.9672   -1.3198    0.5181 O   0  0  0  0  0  0  0  0  0  0  0  0
    2.5454   -0.3316   -0.0645 C   0  0  0  0  0  0  0  0  0  0  0  0
    1.3453    0.3185    0.1796 N   0  0  0  0  0  0  0  0  0  0  0  0
    0.3645   -0.0424    1.1265 C   0  0  0  0  0  0  0  0  0  0  0  0
    0.5994   -0.9649    2.1485 C   0  0  0  0  0  0  0  0  0  0  0  0
   -0.4166   -1.3219    3.0386 C   0  0  0  0  0  0  0  0  0  0  0  0
   -1.6828   -0.7597    2.9157 C   0  0  0  0  0  0  0  0  0  0  0  0
   -1.9269    0.1757    1.9124 C   0  0  0  0  0  0  0  0  0  0  0  0
   -0.9043    0.5432    1.0284 C   0  0  0  0  0  0  0  0  0  0  0  0
    3.2809    0.2741   -1.1833 C   0  0  0  0  0  0  0  0  0  0  0  0
    4.4508   -0.1530   -1.7963 C   0  0  0  0  0  0  0  0  0  0  0  0
    4.6576    0.7534   -2.8266 N   0  0  0  0  0  0  0  0  0  0  0  0
    3.6558    1.6812   -2.7798 C   0  0  0  0  0  0  0  0  0  0  0  0
    2.8064    1.4252   -1.8131 N   0  0  0  0  0  0  0  0  0  0  0  0
    5.7224    0.6712   -3.7415 C   0  0  0  0  0  0  0  0  0  0  0  0
    5.7705    1.5497   -4.5860 O   0  0  0  0  0  0  0  0  0  0  0  0
    6.6303   -0.4424   -3.5758 C   0  0  0  0  0  0  0  0  0  0  0  0
    7.7490   -0.8872   -4.2628 C   0  0  0  0  0  0  0  0  0  0  0  0
    8.2481   -2.0329   -3.6469 N   0  0  0  0  0  0  0  0  0  0  0  0
    7.4481   -2.2755   -2.6269 C   0  0  0  0  0  0  0  0  0  0  0  0
    6.4434   -1.3464   -2.5398 N   0  0  0  0  0  0  0  0  0  0  0  0
    5.3802   -1.2564   -1.6088 C   0  0  0  0  0  0  0  0  0  0  0  0
    5.3452   -2.1126   -0.7384 O   0  0  0  0  0  0  0  0  0  0  0  0
    8.3540   -0.2895   -5.4650 C   0  0  0  0  0  0  0  0  0  0  0  0
    7.8742    0.7074   -5.9819 O   0  0  0  0  0  0  0  0  0  0  0  0
    9.4738   -0.9667   -5.9165 N   0  0  0  0  0  0  0  0  0  0  0  0
   10.2483   -0.6481   -7.0573 C   0  0  0  0  0  0  0  0  0  0  0  0
    9.9753    0.4269   -7.9108 C   0  0  0  0  0  0  0  0  0  0  0  0
   10.7745    0.6799   -9.0303 C   0  0  0  0  0  0  0  0  0  0  0  0
   11.8616   -0.1391   -9.3115 C   0  0  0  0  0  0  0  0  0  0  0  0
   12.1518   -1.2100   -8.4684 C   0  0  0  0  0  0  0  0  0  0  0  0
   11.3501   -1.4622   -7.3474 C   0  0  0  0  0  0  0  0  0  0  0  0
  1  2  2  0
  2  3  1  0
  2 10  1  0
  3  4  1  0
  4  5  2  0
  4  9  1  0
  5  6  1  0
  6  7  2  0
  7  8  1  0
  8  9  2  0
 10 11  2  0
 10 14  1  0
 11 12  1  0
 11 22  1  0
 12 13  1  0
 12 15  1  0
 13 14  2  0
 15 16  2  0
 15 17  1  0
 17 18  2  0
 17 21  1  0
 18 19  1  0
 18 24  1  0
 19 20  2  0
 20 21  1  0
 21 22  1  0
 22 23  2  0
 24 25  2  0
 24 26  1  0
 26 27  1  0
 27 28  2  0
 27 32  1  0
 28 29  1  0
 29 30  2  0
 30 31  1  0
 31 32  2  0
M  END
$$$$
