mol15
     RDKit          3D

 22 24  0  0  0  0  0  0  0  0999 V2000
    1.2403    0.3268    0.0110 C   0  0  0  0  0  0  0  0  0  0  0  0
    2.6991    0.0383    0.0212 C   0  0  0  0  0  0  0  0  0  0  0  0
    3.6589    0.9349    0.0359 N   0  0  0  0  0  0  0  0  0  0  0  0
    4.8694    0.2497    0.0466 C   0  0  0  0  0  0  0  0  0  0  0  0
    6.1544    0.9765    0.0461 C   0  0  0  0  0  0  0  0  0  0  0  0
    6.0526    2.7360    0.0414 Cl  0  0  0  0  0  0  0  0  0  0  0  0
    7.2239    0.3754    0.0446 O   0  0  0  0  0  0  0  0  0  0  0  0
    4.6167   -1.1197    0.0472 C   0  0  0  0  0  0  0  0  0  0  0  0
    3.2272   -1.2316    0.0215 N   0  0  0  0  0  0  0  0  0  0  0  0
    2.5606   -2.4699   -0.0203 C   0  0  0  0  0  0  0  0  0  0  0  0
    1.3450   -2.4599   -0.1296 O   0  0  0  0  0  0  0  0  0  0  0  0
    3.3803   -3.6513    0.0126 C   0  0  0  0  0  0  0  0  0  0  0  0
    3.0652   -4.9948   -0.0023 C   0  0  0  0  0  0  0  0  0  0  0  0
    4.2354   -5.7271   -0.0368 N   0  0  0  0  0  0  0  0  0  0  0  0
    5.2355   -4.8643    0.0063 C   0  0  0  0  0  0  0  0  0  0  0  0
    6.6705   -5.2601    0.0297 C   0  0  0  0  0  0  0  0  0  0  0  0
    4.7663   -3.5668    0.0302 N   0  0  0  0  0  0  0  0  0  0  0  0
    5.4464   -2.3193    0.0503 C   0  0  0  0  0  0  0  0  0  0  0  0
    6.6667   -2.3495    0.0637 O   0  0  0  0  0  0  0  0  0  0  0  0
    1.7241   -5.6107    0.0269 C   0  0  0  0  0  0  0  0  0  0  0  0
    1.5744   -7.1661   -0.7693 Cl  0  0  0  0  0  0  0  0  0  0  0  0
    0.7911   -5.0518    0.5953 O   0  0  0  0  0  0  0  0  0  0  0  0
  1  2  1  0
  2  3  2  0
  2  9  1  0
  3  4  1  0
  4  5  1  0
  4  8  2  0
  5  6  1  0
  5  7  2  0
  8  9  1  0
  8 18  1  0
  9 10  1  0
 10 11  2  0
 10 12  1  0
 12 13  2  0
 12 17  1  0
 13 14  1  0
 13 20  1  0
 14 15  2  0
 15 16  1  0
 15 17  1  0
 17 18  1  0
 18 19  2  0
 20 21  1  0
 20 22  2  0
M  END
$$$$
