mol13
     RDKit          3D

 40 44  0  0  0  0  0  0  0  0999 V2000
    1.2988    0.6714    0.0597 C   0  0  0  0  0  0  0  0  0  0  0  0
    2.7526    0.3541    0.0979 C   0  0  0  0  0  0  0  0  0  0  0  0
    3.7486    1.2249    0.1682 N   0  0  0  0  0  0  0  0  0  0  0  0
    4.9286    0.4884    0.0919 C   0  0  0  0  0  0  0  0  0  0  0  0
    6.2317    1.1793    0.0335 C   0  0  0  0  0  0  0  0  0  0  0  0
    7.2773    0.5993   -0.2277 O   0  0  0  0  0  0  0  0  0  0  0  0
    6.1435    2.5347    0.3400 N   0  0  0  0  0  0  0  0  0  0  0  0
    7.2462    3.4245    0.3629 C   0  0  0  0  0  0  0  0  0  0  0  0
    7.3792    4.3688    1.3951 C   0  0  0  0  0  0  0  0  0  0  0  0
    6.2641    4.4087    2.7153 Cl  0  0  0  0  0  0  0  0  0  0  0  0
    8.4653    5.2518    1.4249 C   0  0  0  0  0  0  0  0  0  0  0  0
    9.4067    5.2352    0.3938 C   0  0  0  0  0  0  0  0  0  0  0  0
   10.7127    6.3649    0.4783 Cl  0  0  0  0  0  0  0  0  0  0  0  0
    9.2671    4.3235   -0.6585 C   0  0  0  0  0  0  0  0  0  0  0  0
   10.3676    4.2850   -1.9915 Cl  0  0  0  0  0  0  0  0  0  0  0  0
    8.1995    3.4133   -0.6635 C   0  0  0  0  0  0  0  0  0  0  0  0
    4.6290   -0.8703    0.0759 C   0  0  0  0  0  0  0  0  0  0  0  0
    3.2396   -0.9364    0.0676 N   0  0  0  0  0  0  0  0  0  0  0  0
    2.5240   -2.1499    0.0450 C   0  0  0  0  0  0  0  0  0  0  0  0
    1.3051   -2.0818    0.0732 O   0  0  0  0  0  0  0  0  0  0  0  0
    3.2924   -3.3676    0.0188 C   0  0  0  0  0  0  0  0  0  0  0  0
    2.9342   -4.7023   -0.0234 C   0  0  0  0  0  0  0  0  0  0  0  0
    4.0771   -5.4797    0.0514 N   0  0  0  0  0  0  0  0  0  0  0  0
    5.1083   -4.6472    0.0620 C   0  0  0  0  0  0  0  0  0  0  0  0
    6.5307   -5.0783    0.0739 C   0  0  0  0  0  0  0  0  0  0  0  0
    4.6801   -3.3294    0.0497 N   0  0  0  0  0  0  0  0  0  0  0  0
    5.4089   -2.1043    0.0763 C   0  0  0  0  0  0  0  0  0  0  0  0
    6.6265   -2.1814    0.1222 O   0  0  0  0  0  0  0  0  0  0  0  0
    1.5876   -5.2878   -0.1406 C   0  0  0  0  0  0  0  0  0  0  0  0
    0.5930   -4.6234   -0.4013 O   0  0  0  0  0  0  0  0  0  0  0  0
    1.5586   -6.6484    0.1134 N   0  0  0  0  0  0  0  0  0  0  0  0
    0.3752   -7.4225    0.0901 C   0  0  0  0  0  0  0  0  0  0  0  0
    0.1520   -8.3954    1.0755 C   0  0  0  0  0  0  0  0  0  0  0  0
    1.2429   -8.5818    2.4033 Cl  0  0  0  0  0  0  0  0  0  0  0  0
   -1.0017   -9.1836    1.0503 C   0  0  0  0  0  0  0  0  0  0  0  0
   -1.9263   -9.0355    0.0134 C   0  0  0  0  0  0  0  0  0  0  0  0
   -3.3072  -10.0747    0.0154 Cl  0  0  0  0  0  0  0  0  0  0  0  0
   -1.7103   -8.0756   -0.9813 C   0  0  0  0  0  0  0  0  0  0  0  0
   -2.7959   -7.8651   -2.3099 Cl  0  0  0  0  0  0  0  0  0  0  0  0
   -0.5715   -7.2614   -0.9312 C   0  0  0  0  0  0  0  0  0  0  0  0
  1  2  1  0
  2  3  2  0
  2 18  1  0
  3  4  1  0
  4  5  1  0
  4 17  2  0
  5  6  2  0
  5  7  1  0
  7  8  1  0
  8  9  2  0
  8 16  1  0
  9 10  1  0
  9 11  1  0
 11 12  2  0
 12 13  1  0
 12 14  1  0
 14 15  1  0
 14 16  2  0
 17 18  1  0
 17 27  1  0
 18 19  1  0
 19 20  2  0
 19 21  1  0
 21 22  2  0
 21 26  1  0
 22 23  1  0
 22 29  1  0
 23 24  2  0
 24 25  1  0
 24 26  1  0
 26 27  1  0
 27 28  2  0
 29 30  2  0
 29 31  1  0
 31 32  1  0
 32 33  2  0
 32 40  1  0
 33 34  1  0
 33 35  1  0
 35 36  2  0
 36 37  1  0
 36 38  1  0
 38 39  1  0
 38 40  2  0
M  END
$$$$
