mol11
     RDKit          3D

 44 48  0  0  0  0  0  0  0  0999 V2000
    0.3523   -0.3884   -2.8067 C   0  0  0  0  0  0  0  0  0  0  0  0
    1.2492    0.1911   -1.8638 O   0  0  0  0  0  0  0  0  0  0  0  0
    1.9545    1.2905   -2.2734 C   0  0  0  0  0  0  0  0  0  0  0  0
    1.9032    1.8706   -3.5303 C   0  0  0  0  0  0  0  0  0  0  0  0
    2.6709    3.0186   -3.7821 C   0  0  0  0  0  0  0  0  0  0  0  0
    3.4991    3.6284   -2.8303 C   0  0  0  0  0  0  0  0  0  0  0  0
    4.2809    4.7782   -3.1238 N   0  0  0  0  0  0  0  0  0  0  0  0
    4.4269    5.8800   -2.2799 C   0  0  0  0  0  0  0  0  0  0  0  0
    3.9457    5.9550   -1.1552 O   0  0  0  0  0  0  0  0  0  0  0  0
    5.1222    7.0075   -2.9304 C   0  0  0  0  0  0  0  0  0  0  0  0
    5.3607    8.3037   -2.4829 C   0  0  0  0  0  0  0  0  0  0  0  0
    5.9728    8.9556   -3.5556 N   0  0  0  0  0  0  0  0  0  0  0  0
    6.0525    8.0574   -4.6021 C   0  0  0  0  0  0  0  0  0  0  0  0
    6.4933    8.3924   -5.9873 C   0  0  0  0  0  0  0  0  0  0  0  0
    5.5872    6.8784   -4.2355 N   0  0  0  0  0  0  0  0  0  0  0  0
    6.3667   10.3120   -3.4969 C   0  0  0  0  0  0  0  0  0  0  0  0
    7.0584   10.7364   -4.4079 O   0  0  0  0  0  0  0  0  0  0  0  0
    5.9560   11.0686   -2.3391 C   0  0  0  0  0  0  0  0  0  0  0  0
    5.9812   12.4193   -2.0325 C   0  0  0  0  0  0  0  0  0  0  0  0
    5.4962   12.5991   -0.7496 N   0  0  0  0  0  0  0  0  0  0  0  0
    5.2145   11.3995   -0.2717 C   0  0  0  0  0  0  0  0  0  0  0  0
    4.7981   11.1332    1.1298 C   0  0  0  0  0  0  0  0  0  0  0  0
    5.3867   10.4278   -1.2455 N   0  0  0  0  0  0  0  0  0  0  0  0
    5.0985    9.0337   -1.2464 C   0  0  0  0  0  0  0  0  0  0  0  0
    4.6561    8.5580   -0.2125 O   0  0  0  0  0  0  0  0  0  0  0  0
    6.4488   13.5401   -2.8660 C   0  0  0  0  0  0  0  0  0  0  0  0
    6.9503   13.3746   -3.9724 O   0  0  0  0  0  0  0  0  0  0  0  0
    6.2089   14.7984   -2.3230 N   0  0  0  0  0  0  0  0  0  0  0  0
    6.6209   15.9889   -2.9801 C   0  0  0  0  0  0  0  0  0  0  0  0
    5.7890   17.1040   -3.1813 C   0  0  0  0  0  0  0  0  0  0  0  0
    6.2334   18.2184   -3.9273 C   0  0  0  0  0  0  0  0  0  0  0  0
    7.5379   18.2525   -4.4145 C   0  0  0  0  0  0  0  0  0  0  0  0
    8.0816   19.2834   -5.1288 O   0  0  0  0  0  0  0  0  0  0  0  0
    7.1899   19.9429   -6.0250 C   0  0  0  0  0  0  0  0  0  0  0  0
    8.4024   17.2010   -4.1246 C   0  0  0  0  0  0  0  0  0  0  0  0
    7.9425   16.0711   -3.4412 C   0  0  0  0  0  0  0  0  0  0  0  0
    4.4125   17.1225   -2.6835 N   0  0  0  0  0  0  0  0  0  0  0  0
    4.0763   16.2741   -1.8444 O   0  0  0  0  0  0  0  0  0  0  0  0
    3.6578   18.0078   -3.1119 O   0  0  0  0  0  0  0  0  0  0  0  0
    3.5354    3.0292   -1.5666 C   0  0  0  0  0  0  0  0  0  0  0  0
    2.7758    1.8718   -1.3000 C   0  0  0  0  0  0  0  0  0  0  0  0
    2.4296    3.6832   -5.0469 N   0  0  0  0  0  0  0  0  0  0  0  0
    1.2813    4.0972   -5.2521 O   0  0  0  0  0  0  0  0  0  0  0  0
    3.3849    3.7758   -5.8281 O   0  0  0  0  0  0  0  0  0  0  0  0
  1  2  1  0
  2  3  1  0
  3  4  2  0
  3 41  1  0
  4  5  1  0
  5  6  2  0
  5 42  1  0
  6  7  1  0
  6 40  1  0
  7  8  1  0
  8  9  2  0
  8 10  1  0
 10 11  2  0
 10 15  1  0
 11 12  1  0
 11 24  1  0
 12 13  1  0
 12 16  1  0
 13 14  1  0
 13 15  2  0
 16 17  2  0
 16 18  1  0
 18 19  2  0
 18 23  1  0
 19 20  1  0
 19 26  1  0
 20 21  2  0
 21 22  1  0
 21 23  1  0
 23 24  1  0
 24 25  2  0
 26 27  2  0
 26 28  1  0
 28 29  1  0
 29 30  2  0
 29 36  1  0
 30 31  1  0
 30 37  1  0
 31 32  2  0
 32 33  1  0
 32 35  1  0
 33 34  1  0
 35 36  2  0
 37 38  1  0
 37 39  2  0
 40 41  2  0
 42 43  1  0
 42 44  2  0
M  CHG  4  37   1  38  -1  42   1  43  -1
M  END
$$$$
