mol1
     RDKit          3D

 35 37  0  0  1  0  0  0  0  0999 V2000
   11.2217    0.0739   -3.9289 C   0  0  0  0  0  0  0  0  0  0  0  0
   10.0019   -0.2356   -3.0912 C   0  0  0  0  0  0  0  0  0  0  0  0
   10.2580   -0.2296   -1.6071 C   0  0  2  0  0  0  0  0  0  0  0  0
    9.9618   -1.5450   -2.2881 C   0  0  1  0  0  0  0  0  0  0  0  0
    8.7281   -2.1355   -1.5880 C   0  0  2  0  0  0  0  0  0  0  0  0
    8.7157   -1.3596   -0.3250 N   0  0  0  0  0  0  0  0  0  0  0  0
    9.2380   -0.0162   -0.5491 C   0  0  0  0  0  0  0  0  0  0  0  0
    8.5185   -1.8995    0.9314 C   0  0  0  0  0  0  0  0  0  0  0  0
    8.5172   -3.1212    1.0767 O   0  0  0  0  0  0  0  0  0  0  0  0
    8.4487   -0.8946    2.1483 C   0  0  2  0  0  0  0  0  0  0  0  0
    8.1263   -1.5095    3.5578 C   0  0  0  0  0  0  0  0  0  0  0  0
    6.6937   -2.0600    3.6226 C   0  0  0  0  0  0  0  0  0  0  0  0
    9.1259   -2.6302    3.9172 C   0  0  0  0  0  0  0  0  0  0  0  0
    8.2744   -0.4206    4.6476 C   0  0  0  0  0  0  0  0  0  0  0  0
    7.5203    0.2053    1.8092 N   0  0  0  0  0  0  0  0  0  0  0  0
    7.8079    1.5506    2.0376 C   0  0  0  0  0  0  0  0  0  0  0  0
    8.8727    1.9017    2.5469 O   0  0  0  0  0  0  0  0  0  0  0  0
    6.7236    2.5486    1.5668 C   0  0  0  0  0  0  0  0  0  0  0  0
    5.6684    1.9084    0.9827 F   0  0  0  0  0  0  0  0  0  0  0  0
    6.2112    3.2922    2.5827 F   0  0  0  0  0  0  0  0  0  0  0  0
    7.1996    3.4204    0.6360 F   0  0  0  0  0  0  0  0  0  0  0  0
    8.5857   -3.6954   -1.7795 C   0  0  0  0  0  0  0  0  0  0  0  0
    7.8757   -4.1366   -2.6885 O   0  0  0  0  0  0  0  0  0  0  0  0
    9.3749   -4.5487   -1.0361 N   0  0  0  0  0  0  0  0  0  0  0  0
    9.2389   -6.0378   -1.1676 C   0  0  1  0  0  0  0  0  0  0  0  0
    9.9616   -6.5166   -2.4596 C   0  0  0  0  0  0  0  0  0  0  0  0
    9.9797   -8.0313   -2.7500 C   0  0  2  0  0  0  0  0  0  0  0  0
   10.7625   -8.3650   -4.0359 C   0  0  0  0  0  0  0  0  0  0  0  0
    9.8383   -9.1973   -4.9149 C   0  0  0  0  0  0  0  0  0  0  0  0
    8.6553   -9.3857   -4.1406 N   0  0  0  0  0  0  0  0  0  0  0  0
    8.6188   -8.6340   -2.9975 C   0  0  0  0  0  0  0  0  0  0  0  0
    7.6462   -8.5128   -2.2682 O   0  0  0  0  0  0  0  0  0  0  0  0
    9.8490   -6.7030    0.0554 C   0  0  0  0  0  0  0  0  0  0  0  0
   10.3552   -7.2548    1.0699 N   0  0  0  0  0  0  0  0  0  0  0  0
    8.7333    0.3413   -3.6660 C   0  0  0  0  0  0  0  0  0  0  0  0
  1  2  1  0
  2  3  1  0
  4  2  1  6
  2 35  1  0
  3  4  1  0
  3  7  1  1
  4  5  1  0
  5  6  1  0
  5 22  1  1
  6  7  1  0
  6  8  1  0
  8  9  2  0
 10 15  1  6
 10 11  1  0
 10  8  1  0
 11 12  1  0
 11 13  1  0
 11 14  1  0
 15 16  1  0
 16 17  2  0
 16 18  1  0
 18 19  1  0
 18 20  1  0
 18 21  1  0
 22 23  2  0
 22 24  1  0
 24 25  1  0
 25 26  1  6
 25 33  1  0
 27 26  1  6
 27 28  1  0
 27 31  1  0
 28 29  1  0
 29 30  1  0
 30 31  1  0
 31 32  2  0
 33 34  3  0
M  END
$$$$
