mol26
     RDKit          3D

 34 38  0  0  0  0  0  0  0  0999 V2000
    2.2440   -0.1732   -1.3185 C   0  0  0  0  0  0  0  0  0  0  0  0
    0.9066    0.1063   -0.7113 C   0  0  0  0  0  0  0  0  0  0  0  0
    0.3606    1.3972   -0.7292 C   0  0  0  0  0  0  0  0  0  0  0  0
   -0.8653    1.6841   -0.1173 C   0  0  0  0  0  0  0  0  0  0  0  0
   -1.4963    0.5765    0.4711 C   0  0  0  0  0  0  0  0  0  0  0  0
   -1.0088   -0.6943    0.4979 N   0  0  0  0  0  0  0  0  0  0  0  0
    0.1851   -0.8981   -0.0835 C   0  0  0  0  0  0  0  0  0  0  0  0
   -1.4165    3.0343   -0.0708 N   0  0  0  0  0  0  0  0  0  0  0  0
   -1.0538    4.0013   -1.0060 C   0  0  0  0  0  0  0  0  0  0  0  0
   -0.3675    3.7492   -2.0016 O   0  0  0  0  0  0  0  0  0  0  0  0
   -1.5371    5.2761   -0.8946 N   0  0  0  0  0  0  0  0  0  0  0  0
   -2.4874    5.5495   -0.0711 C   0  0  0  0  0  0  0  0  0  0  0  0
   -3.1539    6.7470   -0.1451 N   0  0  0  0  0  0  0  0  0  0  0  0
   -2.5836    8.0749   -0.5439 C   0  0  0  0  0  0  0  0  0  0  0  0
   -3.8406    8.9291   -0.5139 C   0  0  0  0  0  0  0  0  0  0  0  0
   -4.9434    8.0704   -0.5849 C   0  0  0  0  0  0  0  0  0  0  0  0
   -4.4704    6.6842   -0.8078 C   0  0  0  0  0  0  0  0  0  0  0  0
   -6.2391    8.4938   -0.3711 C   0  0  0  0  0  0  0  0  0  0  0  0
   -6.4430    9.8383   -0.1061 C   0  0  0  0  0  0  0  0  0  0  0  0
   -5.3626   10.7372   -0.1315 C   0  0  0  0  0  0  0  0  0  0  0  0
   -4.0465   10.2897   -0.3500 C   0  0  0  0  0  0  0  0  0  0  0  0
   -2.9170    4.5997    0.8375 N   0  0  0  0  0  0  0  0  0  0  0  0
   -3.8830    4.8926    1.9153 C   0  0  0  0  0  0  0  0  0  0  0  0
   -5.2066    4.1306    1.8303 C   0  0  0  0  0  0  0  0  0  0  0  0
   -6.1058    4.2100    2.9134 C   0  0  0  0  0  0  0  0  0  0  0  0
   -7.3333    3.5313    2.8820 C   0  0  0  0  0  0  0  0  0  0  0  0
   -8.6768    3.7758    4.4537 I   0  0  0  0  0  0  0  0  0  0  0  0
   -7.6608    2.7312    1.7923 C   0  0  0  0  0  0  0  0  0  0  0  0
   -8.8210    2.0588    1.7464 F   0  0  0  0  0  0  0  0  0  0  0  0
   -6.7789    2.6384    0.7259 C   0  0  0  0  0  0  0  0  0  0  0  0
   -7.0863    1.8806   -0.3360 F   0  0  0  0  0  0  0  0  0  0  0  0
   -5.5725    3.3386    0.7287 C   0  0  0  0  0  0  0  0  0  0  0  0
   -2.3069    3.3628    0.9277 C   0  0  0  0  0  0  0  0  0  0  0  0
   -2.5615    2.6278    1.8848 O   0  0  0  0  0  0  0  0  0  0  0  0
  1  2  1  0
  2  3  2  0
  2  7  1  0
  3  4  1  0
  4  5  2  0
  4  8  1  0
  5  6  1  0
  6  7  2  0
  8  9  1  0
  8 33  1  0
  9 10  2  0
  9 11  1  0
 11 12  2  0
 12 13  1  0
 12 22  1  0
 13 14  1  0
 13 17  1  0
 14 15  1  0
 15 16  2  0
 15 21  1  0
 16 17  1  0
 16 18  1  0
 18 19  2  0
 19 20  1  0
 20 21  2  0
 22 23  1  0
 22 33  1  0
 23 24  1  0
 24 25  2  0
 24 32  1  0
 25 26  1  0
 26 27  1  0
 26 28  2  0
 28 29  1  0
 28 30  1  0
 30 31  1  0
 30 32  2  0
 33 34  2  0
M  END
$$$$
