mol22
     RDKit          3D

 35 39  0  0  0  0  0  0  0  0999 V2000
    2.3947    0.0193    0.3141 C   0  0  0  0  0  0  0  0  0  0  0  0
    0.9066    0.1087    0.1790 C   0  0  0  0  0  0  0  0  0  0  0  0
    0.1202   -1.0338    0.0976 C   0  0  0  0  0  0  0  0  0  0  0  0
   -1.2290   -1.0178    0.0295 N   0  0  0  0  0  0  0  0  0  0  0  0
   -1.8288    0.2007    0.0362 C   0  0  0  0  0  0  0  0  0  0  0  0
   -1.1443    1.4148    0.0689 C   0  0  0  0  0  0  0  0  0  0  0  0
    0.2527    1.3491    0.1480 C   0  0  0  0  0  0  0  0  0  0  0  0
   -1.8299    2.6761   -0.0159 N   0  0  0  0  0  0  0  0  0  0  0  0
   -1.5068    3.5186   -1.0606 C   0  0  0  0  0  0  0  0  0  0  0  0
   -0.5943    3.2681   -1.8552 O   0  0  0  0  0  0  0  0  0  0  0  0
   -2.2911    4.6597   -1.2266 N   0  0  0  0  0  0  0  0  0  0  0  0
   -1.9125    5.4986   -2.3850 C   0  0  0  0  0  0  0  0  0  0  0  0
   -2.8721    5.4799   -3.5082 C   0  0  0  0  0  0  0  0  0  0  0  0
   -3.6117    5.5290   -4.3953 N   0  0  0  0  0  0  0  0  0  0  0  0
   -3.2365    5.1188   -0.2824 C   0  0  0  0  0  0  0  0  0  0  0  0
   -3.7977    6.3843   -0.4825 N   0  0  0  0  0  0  0  0  0  0  0  0
   -3.9913    7.5645    0.3351 C   0  0  0  0  0  0  0  0  0  0  0  0
   -4.5373    8.2246   -0.9839 C   0  0  0  0  0  0  0  0  0  0  0  0
   -4.9327    6.7553   -1.2939 C   0  0  0  0  0  0  0  0  0  0  0  0
   -5.6408    9.2679   -1.0317 C   0  0  0  0  0  0  0  0  0  0  0  0
   -4.9913   10.4918   -1.6823 C   0  0  0  0  0  0  0  0  0  0  0  0
   -3.5904   10.2292   -1.7657 O   0  0  0  0  0  0  0  0  0  0  0  0
   -3.4510    8.8140   -1.8776 C   0  0  0  0  0  0  0  0  0  0  0  0
   -3.4676    4.3195    0.7912 C   0  0  0  0  0  0  0  0  0  0  0  0
   -4.3627    4.5959    1.9824 C   0  0  0  0  0  0  0  0  0  0  0  0
   -3.6475    5.0619    3.2454 C   0  0  0  0  0  0  0  0  0  0  0  0
   -4.1268    4.6637    4.5099 C   0  0  0  0  0  0  0  0  0  0  0  0
   -3.6129    5.2261    5.6853 C   0  0  0  0  0  0  0  0  0  0  0  0
   -2.6147    6.1887    5.6057 C   0  0  0  0  0  0  0  0  0  0  0  0
   -2.1718    6.7771    6.7253 F   0  0  0  0  0  0  0  0  0  0  0  0
   -2.0970    6.5531    4.3716 C   0  0  0  0  0  0  0  0  0  0  0  0
   -1.1344    7.4819    4.2893 F   0  0  0  0  0  0  0  0  0  0  0  0
   -2.5960    5.9901    3.1985 C   0  0  0  0  0  0  0  0  0  0  0  0
   -2.8706    2.9423    0.8442 C   0  0  0  0  0  0  0  0  0  0  0  0
   -3.2923    2.1321    1.6737 O   0  0  0  0  0  0  0  0  0  0  0  0
  1  2  1  0
  2  3  2  0
  2  7  1  0
  3  4  1  0
  4  5  2  0
  5  6  1  0
  6  7  2  0
  6  8  1  0
  8  9  1  0
  8 34  1  0
  9 10  2  0
  9 11  1  0
 11 12  1  0
 11 15  1  0
 12 13  1  0
 13 14  3  0
 15 16  1  0
 15 24  2  0
 16 17  1  0
 16 19  1  0
 17 18  1  0
 18 19  1  0
 18 20  1  0
 18 23  1  0
 20 21  1  0
 21 22  1  0
 22 23  1  0
 24 25  1  0
 24 34  1  0
 25 26  1  0
 26 27  2  0
 26 33  1  0
 27 28  1  0
 28 29  2  0
 29 30  1  0
 29 31  1  0
 31 32  1  0
 31 33  2  0
 34 35  2  0
M  END
$$$$
