mol29
     RDKit          3D

 62 68  0  0  1  0  0  0  0  0999 V2000
    6.7707    0.9299   -2.8487 C   0  0  0  0  0  0  0  0  0  0  0  0
    6.6636    1.4478   -1.5246 O   0  0  0  0  0  0  0  0  0  0  0  0
    5.4184    1.3525   -1.0044 C   0  0  0  0  0  0  0  0  0  0  0  0
    4.4446    0.8735   -1.5764 O   0  0  0  0  0  0  0  0  0  0  0  0
    5.3553    1.9398    0.3785 C   0  0  0  0  0  0  0  0  0  0  0  0
    6.7113    2.1092    1.1500 C   0  0  2  0  0  0  0  0  0  0  0  0
    7.6672    3.5299    0.6140 C   0  0  0  0  0  0  0  0  0  0  0  0
    9.1612    4.3008    1.0946 N   0  0  0  0  0  0  0  0  0  0  0  0
   10.3226    3.6377    1.6531 C   0  0  0  0  0  0  0  0  0  0  0  0
   11.6466    3.9860    1.2989 C   0  0  0  0  0  0  0  0  0  0  0  0
   12.7604    3.2521    1.7210 C   0  0  0  0  0  0  0  0  0  0  0  0
   12.5301    2.0951    2.3999 C   0  0  0  0  0  0  0  0  0  0  0  0
   11.2515    1.9038    2.8932 C   0  0  0  0  0  0  0  0  0  0  0  0
   10.1829    2.8149    2.7427 C   0  0  0  0  0  0  0  0  0  0  0  0
    8.8386    2.7520    3.4578 C   0  0  1  0  0  0  0  0  0  0  0  0
    8.3156    1.4254    3.6700 N   0  0  0  0  0  0  0  0  0  0  0  0
    8.5053    0.8199    4.9787 C   0  0  0  0  0  0  0  0  0  0  0  0
    9.9653    0.7890    5.3627 C   0  0  0  0  0  0  0  0  0  0  0  0
   10.3127    0.1653    6.6374 C   0  0  0  0  0  0  0  0  0  0  0  0
   10.7701    0.7718    7.7847 C   0  0  0  0  0  0  0  0  0  0  0  0
   11.0594   -0.2213    8.6737 N   0  0  0  0  0  0  0  0  0  0  0  0
   10.7762   -1.4540    8.1214 C   0  0  0  0  0  0  0  0  0  0  0  0
   10.3748   -1.2373    6.8121 C   0  0  0  0  0  0  0  0  0  0  0  0
   10.1248   -2.3243    5.9504 C   0  0  0  0  0  0  0  0  0  0  0  0
   10.1915   -3.6092    6.4697 C   0  0  0  0  0  0  0  0  0  0  0  0
   10.5296   -3.8094    7.8049 C   0  0  0  0  0  0  0  0  0  0  0  0
   10.8593   -2.7387    8.6498 C   0  0  0  0  0  0  0  0  0  0  0  0
    8.3481    0.6833    2.4936 C   0  0  0  0  0  0  0  0  0  0  0  0
    9.3507    0.2582    1.9317 O   0  0  0  0  0  0  0  0  0  0  0  0
    7.0336    0.6577    1.7907 C   0  0  2  0  0  0  0  0  0  0  0  0
    7.0133   -0.8069    1.2941 C   0  0  0  0  0  0  0  0  0  0  0  0
    7.4091   -1.7985    2.0879 N   0  0  0  0  0  0  0  0  0  0  0  0
    7.4067   -2.9579    1.3767 N   0  0  0  0  0  0  0  0  0  0  0  0
    6.9125   -2.6741    0.1923 C   0  0  0  0  0  0  0  0  0  0  0  0
    6.6120   -1.2997    0.0580 O   0  0  0  0  0  0  0  0  0  0  0  0
    6.6735   -3.6389   -0.8989 C   0  0  0  0  0  0  0  0  0  0  0  0
    5.8825   -3.3214   -2.0052 C   0  0  0  0  0  0  0  0  0  0  0  0
    5.6486   -4.2660   -3.0285 C   0  0  0  0  0  0  0  0  0  0  0  0
    6.1960   -5.5448   -2.9491 C   0  0  0  0  0  0  0  0  0  0  0  0
    6.9798   -5.9180   -1.8510 C   0  0  0  0  0  0  0  0  0  0  0  0
    7.2090   -4.9572   -0.8336 C   0  0  0  0  0  0  0  0  0  0  0  0
    7.5553   -7.3207   -1.7799 C   0  0  0  0  0  0  0  0  0  0  0  0
    7.2246   -8.0991   -2.8537 F   0  0  0  0  0  0  0  0  0  0  0  0
    8.9163   -7.3321   -1.7306 F   0  0  0  0  0  0  0  0  0  0  0  0
    7.1333   -8.0115   -0.6842 F   0  0  0  0  0  0  0  0  0  0  0  0
    8.1838    3.9254    4.2456 C   0  0  0  0  0  0  0  0  0  0  0  0
    7.0001    4.1974    4.0036 O   0  0  0  0  0  0  0  0  0  0  0  0
    8.8661    4.5667    5.2489 N   0  0  0  0  0  0  0  0  0  0  0  0
    8.3009    5.7304    5.9977 C   0  0  0  0  0  0  0  0  0  0  0  0
    6.9146    5.4274    6.6061 C   0  0  0  0  0  0  0  0  0  0  0  0
    9.2601    6.0612    7.1535 C   0  0  0  0  0  0  0  0  0  0  0  0
    8.1664    6.9974    5.1287 C   0  0  0  0  0  0  0  0  0  0  0  0
    9.2104    6.0240    1.5227 S   0  0  0  0  0  0  0  0  0  0  0  0
    7.9248    6.6146    1.2753 O   0  0  0  0  0  0  0  0  0  0  0  0
    9.8398    6.1135    2.8448 O   0  0  0  0  0  0  0  0  0  0  0  0
   10.3841    6.9728    0.4669 C   0  0  0  0  0  0  0  0  0  0  0  0
   10.7416    6.5202   -0.7961 C   0  0  0  0  0  0  0  0  0  0  0  0
   11.6557    7.2563   -1.5808 C   0  0  0  0  0  0  0  0  0  0  0  0
   12.2091    8.4626   -1.1435 C   0  0  0  0  0  0  0  0  0  0  0  0
   13.1565    9.2538   -2.0133 C   0  0  0  0  0  0  0  0  0  0  0  0
   11.8594    8.9215    0.1379 C   0  0  0  0  0  0  0  0  0  0  0  0
   10.9738    8.1855    0.9357 C   0  0  0  0  0  0  0  0  0  0  0  0
  1  2  1  0
  2  3  1  0
  3  4  2  0
  3  5  1  0
  6  5  1  6
  6  7  1  0
  6 30  1  0
  7  8  1  0
  8  9  1  0
  8 53  1  0
  9 10  2  0
  9 14  1  0
 10 11  1  0
 11 12  2  0
 12 13  1  0
 13 14  2  0
 14 15  1  0
 15 16  1  0
 15 46  1  1
 16 17  1  0
 16 28  1  0
 17 18  1  0
 18 19  1  0
 19 20  2  0
 19 23  1  0
 20 21  1  0
 21 22  1  0
 22 23  2  0
 22 27  1  0
 23 24  1  0
 24 25  2  0
 25 26  1  0
 26 27  2  0
 28 29  2  0
 28 30  1  0
 30 31  1  6
 31 32  2  0
 31 35  1  0
 32 33  1  0
 33 34  2  0
 34 35  1  0
 34 36  1  0
 36 37  2  0
 36 41  1  0
 37 38  1  0
 38 39  2  0
 39 40  1  0
 40 41  2  0
 40 42  1  0
 42 43  1  0
 42 44  1  0
 42 45  1  0
 46 47  2  0
 46 48  1  0
 48 49  1  0
 49 50  1  0
 49 51  1  0
 49 52  1  0
 53 54  2  0
 53 55  2  0
 53 56  1  0
 56 57  2  0
 56 62  1  0
 57 58  1  0
 58 59  2  0
 59 60  1  0
 59 61  1  0
 61 62  2  0
M  END
$$$$
