mol28
     RDKit          3D

 49 54  0  0  1  0  0  0  0  0999 V2000
    6.9027    0.6028   -2.9167 C   0  0  0  0  0  0  0  0  0  0  0  0
    6.6666    1.1887   -1.6180 O   0  0  0  0  0  0  0  0  0  0  0  0
    5.3732    1.2464   -1.2569 C   0  0  0  0  0  0  0  0  0  0  0  0
    4.4190    0.8285   -1.8980 O   0  0  0  0  0  0  0  0  0  0  0  0
    5.2192    1.9440    0.0722 C   0  0  0  0  0  0  0  0  0  0  0  0
    6.5604    2.2687    0.7874 C   0  0  2  0  0  0  0  0  0  0  0  0
    7.4974    3.4091    0.0444 C   0  0  0  0  0  0  0  0  0  0  0  0
    8.9511    3.3530   -0.1137 O   0  0  0  0  0  0  0  0  0  0  0  0
    9.9032    3.9586    0.7458 C   0  0  0  0  0  0  0  0  0  0  0  0
   11.1235    4.3641    0.1832 C   0  0  0  0  0  0  0  0  0  0  0  0
   12.3292    3.8043    0.6434 C   0  0  0  0  0  0  0  0  0  0  0  0
   14.0097    4.3821    0.0012 Br  0  0  0  0  0  0  0  0  0  0  0  0
   12.3056    2.8292    1.6214 C   0  0  0  0  0  0  0  0  0  0  0  0
   11.1549    2.7334    2.3852 C   0  0  0  0  0  0  0  0  0  0  0  0
    9.9888    3.4491    2.0346 C   0  0  0  0  0  0  0  0  0  0  0  0
    8.7416    3.4215    2.8646 C   0  0  1  0  0  0  0  0  0  0  0  0
    8.4290    2.0686    3.2596 N   0  0  0  0  0  0  0  0  0  0  0  0
    8.6561    1.6459    4.6179 C   0  0  0  0  0  0  0  0  0  0  0  0
    8.3740    0.1527    4.8068 C   0  0  0  0  0  0  0  0  0  0  0  0
    8.3052   -0.1705    6.2227 C   0  0  0  0  0  0  0  0  0  0  0  0
    9.2498   -0.8718    6.9592 C   0  0  0  0  0  0  0  0  0  0  0  0
    8.8083   -0.9476    8.2433 N   0  0  0  0  0  0  0  0  0  0  0  0
    7.5962   -0.3026    8.3742 C   0  0  0  0  0  0  0  0  0  0  0  0
    7.2491    0.1424    7.1059 C   0  0  0  0  0  0  0  0  0  0  0  0
    6.0290    0.8294    6.9420 C   0  0  0  0  0  0  0  0  0  0  0  0
    5.2127    1.0747    8.0519 C   0  0  0  0  0  0  0  0  0  0  0  0
    5.6104    0.6249    9.3159 C   0  0  0  0  0  0  0  0  0  0  0  0
    6.7985   -0.0854    9.4952 C   0  0  0  0  0  0  0  0  0  0  0  0
    8.4162    1.1372    2.2081 C   0  0  0  0  0  0  0  0  0  0  0  0
    9.3649    0.4371    1.8798 O   0  0  0  0  0  0  0  0  0  0  0  0
    7.0417    1.0477    1.6264 C   0  0  2  0  0  0  0  0  0  0  0  0
    6.7468   -0.3894    1.3291 C   0  0  0  0  0  0  0  0  0  0  0  0
    6.1630   -1.2410    2.1659 N   0  0  0  0  0  0  0  0  0  0  0  0
    6.2077   -2.4789    1.5776 N   0  0  0  0  0  0  0  0  0  0  0  0
    6.8181   -2.3222    0.4205 C   0  0  0  0  0  0  0  0  0  0  0  0
    7.1955   -1.0126    0.1959 O   0  0  0  0  0  0  0  0  0  0  0  0
    7.0390   -3.2981   -0.6396 C   0  0  0  0  0  0  0  0  0  0  0  0
    6.2277   -4.4437   -0.7186 C   0  0  0  0  0  0  0  0  0  0  0  0
    6.3732   -5.3570   -1.7686 C   0  0  0  0  0  0  0  0  0  0  0  0
    7.3475   -5.1444   -2.7405 C   0  0  0  0  0  0  0  0  0  0  0  0
    8.1867   -4.0355   -2.6518 C   0  0  0  0  0  0  0  0  0  0  0  0
    8.0358   -3.1182   -1.6066 C   0  0  0  0  0  0  0  0  0  0  0  0
    8.1721    4.7325    3.4865 C   0  0  0  0  0  0  0  0  0  0  0  0
    7.1142    4.6881    4.1194 O   0  0  0  0  0  0  0  0  0  0  0  0
    8.7294    5.9367    3.0654 N   0  0  0  0  0  0  0  0  0  0  0  0
    8.1349    7.2781    3.3006 C   0  0  0  0  0  0  0  0  0  0  0  0
    7.9424    7.5200    4.8030 C   0  0  0  0  0  0  0  0  0  0  0  0
    9.0885    8.3628    2.7525 C   0  0  0  0  0  0  0  0  0  0  0  0
    6.7914    7.4625    2.5611 C   0  0  0  0  0  0  0  0  0  0  0  0
  1  2  1  0
  2  3  1  0
  3  4  2  0
  3  5  1  0
  6  5  1  6
  6  7  1  0
  6 31  1  0
  7  8  1  0
  8  9  1  0
  9 10  2  0
  9 15  1  0
 10 11  1  0
 11 12  1  0
 11 13  2  0
 13 14  1  0
 14 15  2  0
 15 16  1  0
 16 17  1  0
 16 43  1  1
 17 18  1  0
 17 29  1  0
 18 19  1  0
 19 20  1  0
 20 21  2  0
 20 24  1  0
 21 22  1  0
 22 23  1  0
 23 24  2  0
 23 28  1  0
 24 25  1  0
 25 26  2  0
 26 27  1  0
 27 28  2  0
 29 30  2  0
 29 31  1  0
 31 32  1  6
 32 33  2  0
 32 36  1  0
 33 34  1  0
 34 35  2  0
 35 36  1  0
 35 37  1  0
 37 38  2  0
 37 42  1  0
 38 39  1  0
 39 40  2  0
 40 41  1  0
 41 42  2  0
 43 44  2  0
 43 45  1  0
 45 46  1  0
 46 47  1  0
 46 48  1  0
 46 49  1  0
M  END
$$$$
