mol20
     RDKit          3D

 37 41  0  0  0  0  0  0  0  0999 V2000
    2.0663    0.0568   -1.1915 C   0  0  0  0  0  0  0  0  0  0  0  0
    0.6370    0.1050   -1.0207 N   0  0  0  0  0  0  0  0  0  0  0  0
   -0.2790   -0.8712   -1.2779 C   0  0  0  0  0  0  0  0  0  0  0  0
   -1.4725   -0.4227   -0.9929 N   0  0  0  0  0  0  0  0  0  0  0  0
   -1.2481    0.8525   -0.5489 C   0  0  0  0  0  0  0  0  0  0  0  0
   -2.3378    1.7606   -0.0630 C   0  0  0  0  0  0  0  0  0  0  0  0
   -3.6321    1.0881   -0.0953 N   0  0  0  0  0  0  0  0  0  0  0  0
   -3.9315    0.2196    0.9282 C   0  0  0  0  0  0  0  0  0  0  0  0
   -3.2534    0.0785    1.9466 O   0  0  0  0  0  0  0  0  0  0  0  0
   -5.1028   -0.4640    0.8272 N   0  0  0  0  0  0  0  0  0  0  0  0
   -6.0824   -0.1904   -0.0893 C   0  0  0  0  0  0  0  0  0  0  0  0
   -7.2961   -0.6549   -0.0240 N   0  0  0  0  0  0  0  0  0  0  0  0
   -7.7298   -1.5224    1.0073 C   0  0  0  0  0  0  0  0  0  0  0  0
   -7.5765   -1.1328    2.3572 C   0  0  0  0  0  0  0  0  0  0  0  0
   -7.5665   -2.2538    3.1689 C   0  0  0  0  0  0  0  0  0  0  0  0
   -7.4259   -2.2831    4.5272 C   0  0  0  0  0  0  0  0  0  0  0  0
   -6.8593   -3.5255    4.6948 N   0  0  0  0  0  0  0  0  0  0  0  0
   -5.5250   -3.7038    5.2466 C   0  0  0  0  0  0  0  0  0  0  0  0
   -7.3513   -4.4117    3.7898 N   0  0  0  0  0  0  0  0  0  0  0  0
   -7.7879   -3.6223    2.7879 C   0  0  0  0  0  0  0  0  0  0  0  0
   -8.3302   -3.9245    1.5373 C   0  0  0  0  0  0  0  0  0  0  0  0
   -8.2740   -2.8190    0.6579 C   0  0  0  0  0  0  0  0  0  0  0  0
   -8.8982   -3.0717   -0.9444 Cl  0  0  0  0  0  0  0  0  0  0  0  0
   -5.7060    0.6532   -1.1194 N   0  0  0  0  0  0  0  0  0  0  0  0
   -6.6048    0.8380   -2.2521 C   0  0  0  0  0  0  0  0  0  0  0  0
   -7.6383    1.9313   -2.0970 C   0  0  0  0  0  0  0  0  0  0  0  0
   -8.1889    2.2929   -0.8572 C   0  0  0  0  0  0  0  0  0  0  0  0
   -9.2398    3.2033   -0.7892 C   0  0  0  0  0  0  0  0  0  0  0  0
   -9.7573    3.5135    0.4037 F   0  0  0  0  0  0  0  0  0  0  0  0
   -9.7481    3.7726   -1.9516 C   0  0  0  0  0  0  0  0  0  0  0  0
  -10.7717    4.6353   -1.8850 F   0  0  0  0  0  0  0  0  0  0  0  0
   -9.2108    3.4461   -3.1898 C   0  0  0  0  0  0  0  0  0  0  0  0
   -8.1681    2.5272   -3.2502 C   0  0  0  0  0  0  0  0  0  0  0  0
   -7.6835    2.1904   -4.4558 F   0  0  0  0  0  0  0  0  0  0  0  0
   -4.4780    1.2927   -1.1696 C   0  0  0  0  0  0  0  0  0  0  0  0
   -4.1716    2.0559   -2.0911 O   0  0  0  0  0  0  0  0  0  0  0  0
    0.0430    1.2191   -0.5543 N   0  0  0  0  0  0  0  0  0  0  0  0
  1  2  1  0
  2  3  1  0
  2 37  1  0
  3  4  2  0
  4  5  1  0
  5  6  1  0
  5 37  2  0
  6  7  1  0
  7  8  1  0
  7 35  1  0
  8  9  2  0
  8 10  1  0
 10 11  1  0
 11 12  2  3
 11 24  1  0
 12 13  1  0
 13 14  2  0
 13 22  1  0
 14 15  1  0
 15 16  2  0
 15 20  1  0
 16 17  1  0
 17 18  1  0
 17 19  1  0
 19 20  2  0
 20 21  1  0
 21 22  2  0
 22 23  1  0
 24 25  1  0
 24 35  1  0
 25 26  1  0
 26 27  2  0
 26 33  1  0
 27 28  1  0
 28 29  1  0
 28 30  2  0
 30 31  1  0
 30 32  1  0
 32 33  2  0
 33 34  1  0
 35 36  2  0
M  END
$$$$
