mol24
     RDKit          3D

 34 38  0  0  0  0  0  0  0  0999 V2000
    2.1227   -0.2337   -1.4015 C   0  0  0  0  0  0  0  0  0  0  0  0
    0.8240    0.0225   -0.7072 C   0  0  0  0  0  0  0  0  0  0  0  0
    0.2225    1.2904   -0.7289 C   0  0  0  0  0  0  0  0  0  0  0  0
   -0.9794    1.5510   -0.0524 C   0  0  0  0  0  0  0  0  0  0  0  0
   -1.5168    0.4467    0.6206 C   0  0  0  0  0  0  0  0  0  0  0  0
   -0.9754   -0.8013    0.6551 N   0  0  0  0  0  0  0  0  0  0  0  0
    0.1820   -0.9832   -0.0068 C   0  0  0  0  0  0  0  0  0  0  0  0
   -1.5882    2.8725   -0.0365 N   0  0  0  0  0  0  0  0  0  0  0  0
   -1.2846    3.8007   -1.0157 C   0  0  0  0  0  0  0  0  0  0  0  0
   -0.6261    3.6082   -2.0416 O   0  0  0  0  0  0  0  0  0  0  0  0
   -1.7819    5.0529   -0.8584 N   0  0  0  0  0  0  0  0  0  0  0  0
   -2.6564    5.5187    0.0918 C   0  0  0  0  0  0  0  0  0  0  0  0
   -2.9904    6.8696    0.0196 N   0  0  0  0  0  0  0  0  0  0  0  0
   -4.2615    7.5722    0.3667 C   0  0  0  0  0  0  0  0  0  0  0  0
   -4.2428    8.7563   -0.5748 C   0  0  0  0  0  0  0  0  0  0  0  0
   -2.9677    8.8734   -1.1332 C   0  0  0  0  0  0  0  0  0  0  0  0
   -2.0493    7.9010   -0.4798 C   0  0  0  0  0  0  0  0  0  0  0  0
   -2.6934    9.7541   -2.1661 C   0  0  0  0  0  0  0  0  0  0  0  0
   -3.7277   10.5621   -2.6303 C   0  0  0  0  0  0  0  0  0  0  0  0
   -4.9882   10.5219   -2.0131 C   0  0  0  0  0  0  0  0  0  0  0  0
   -5.2528    9.6216   -0.9688 C   0  0  0  0  0  0  0  0  0  0  0  0
   -3.0773    4.6012    0.9849 C   0  0  0  0  0  0  0  0  0  0  0  0
   -4.1007    4.7821    2.0805 C   0  0  0  0  0  0  0  0  0  0  0  0
   -3.5430    5.1342    3.4451 C   0  0  0  0  0  0  0  0  0  0  0  0
   -2.4903    6.0479    3.6096 C   0  0  0  0  0  0  0  0  0  0  0  0
   -2.0234    6.3620    4.8857 C   0  0  0  0  0  0  0  0  0  0  0  0
   -1.0212    7.2430    5.0117 F   0  0  0  0  0  0  0  0  0  0  0  0
   -2.5913    5.7858    6.0118 C   0  0  0  0  0  0  0  0  0  0  0  0
   -2.1363    6.0983    7.2334 F   0  0  0  0  0  0  0  0  0  0  0  0
   -3.6428    4.8946    5.8629 C   0  0  0  0  0  0  0  0  0  0  0  0
   -4.2160    4.3420    6.9408 F   0  0  0  0  0  0  0  0  0  0  0  0
   -4.1255    4.5717    4.5951 C   0  0  0  0  0  0  0  0  0  0  0  0
   -2.4464    3.2300    0.9988 C   0  0  0  0  0  0  0  0  0  0  0  0
   -2.6913    2.5171    1.9700 O   0  0  0  0  0  0  0  0  0  0  0  0
  1  2  1  0
  2  3  2  0
  2  7  1  0
  3  4  1  0
  4  5  2  0
  4  8  1  0
  5  6  1  0
  6  7  2  0
  8  9  1  0
  8 33  1  0
  9 10  2  0
  9 11  1  0
 11 12  1  0
 12 13  1  0
 12 22  2  0
 13 14  1  0
 13 17  1  0
 14 15  1  0
 15 16  2  0
 15 21  1  0
 16 17  1  0
 16 18  1  0
 18 19  2  0
 19 20  1  0
 20 21  2  0
 22 23  1  0
 22 33  1  0
 23 24  1  0
 24 25  2  0
 24 32  1  0
 25 26  1  0
 26 27  1  0
 26 28  2  0
 28 29  1  0
 28 30  1  0
 30 31  1  0
 30 32  2  0
 33 34  2  0
M  END
$$$$
