mol27
     RDKit          3D

 26 28  0  0  1  0  0  0  0  0999 V2000
    0.2010    0.8254    1.9431 F   0  0  0  0  0  0  0  0  0  0  0  0
    0.1050    0.0930    0.8256 C   0  0  0  0  0  0  0  0  0  0  0  0
    0.0488   -1.2979    0.9276 C   0  0  0  0  0  0  0  0  0  0  0  0
   -0.0484   -2.0881   -0.2283 C   0  0  0  0  0  0  0  0  0  0  0  0
   -0.0821   -3.6005   -0.1394 C   0  0  0  0  0  0  0  0  0  0  0  0
   -1.4820   -4.2282   -0.0067 C   0  0  2  0  0  0  0  0  0  0  0  0
   -2.3390   -3.9036   -1.1860 C   0  0  0  0  0  0  0  0  0  0  0  0
   -1.9698   -4.0887   -2.3443 O   0  0  0  0  0  0  0  0  0  0  0  0
   -3.5589   -3.3688   -0.9261 N   0  0  0  0  0  0  0  0  0  0  0  0
   -3.9386   -2.7744    0.2423 C   0  0  0  0  0  0  0  0  0  0  0  0
   -4.9270   -2.0440    0.2255 O   0  0  0  0  0  0  0  0  0  0  0  0
   -3.1789   -3.0728    1.3670 N   0  0  0  0  0  0  0  0  0  0  0  0
   -2.0759   -3.9194    1.3409 C   0  0  0  0  0  0  0  0  0  0  0  0
   -1.5145   -4.3572    2.3494 O   0  0  0  0  0  0  0  0  0  0  0  0
   -3.5748   -2.5111    2.6226 C   0  0  0  0  0  0  0  0  0  0  0  0
   -3.7597   -1.1300    2.7528 C   0  0  0  0  0  0  0  0  0  0  0  0
   -4.0476   -0.5916    4.0033 C   0  0  0  0  0  0  0  0  0  0  0  0
   -4.1839    1.1069    4.2074 Cl  0  0  0  0  0  0  0  0  0  0  0  0
   -4.1856   -1.4509    5.0819 C   0  0  0  0  0  0  0  0  0  0  0  0
   -4.0471   -2.7944    4.9924 N   0  0  0  0  0  0  0  0  0  0  0  0
   -3.7282   -3.2901    3.7715 C   0  0  0  0  0  0  0  0  0  0  0  0
   -0.0869   -1.4467   -1.4786 C   0  0  0  0  0  0  0  0  0  0  0  0
   -0.0313   -0.0552   -1.5609 C   0  0  0  0  0  0  0  0  0  0  0  0
   -0.0692    0.5299   -2.7658 F   0  0  0  0  0  0  0  0  0  0  0  0
    0.0639    0.7181   -0.4124 C   0  0  0  0  0  0  0  0  0  0  0  0
    0.1151    2.0542   -0.4995 F   0  0  0  0  0  0  0  0  0  0  0  0
  1  2  1  0
  2  3  2  0
  2 25  1  0
  3  4  1  0
  4  5  1  0
  4 22  2  0
  6  5  1  6
  6  7  1  0
  6 13  1  0
  7  8  2  0
  7  9  1  0
  9 10  1  0
 10 11  2  0
 10 12  1  0
 12 13  1  0
 12 15  1  0
 13 14  2  0
 15 16  2  0
 15 21  1  0
 16 17  1  0
 17 18  1  0
 17 19  2  0
 19 20  1  0
 20 21  2  0
 22 23  1  0
 23 24  1  0
 23 25  2  0
 25 26  1  0
M  END
$$$$
