mol21
     RDKit          3D

 27 29  0  0  0  0  0  0  0  0999 V2000
    0.9971    0.1848    0.1660 C   0  0  0  0  0  0  0  0  0  0  0  0
    2.4554    0.0930    0.1641 N   0  0  0  0  0  0  0  0  0  0  0  0
    3.1376   -1.1015    0.2743 C   0  0  0  0  0  0  0  0  0  0  0  0
    2.1917   -2.5222    0.5741 Cl  0  0  0  0  0  0  0  0  0  0  0  0
    4.4700   -1.1857    0.1672 C   0  0  0  0  0  0  0  0  0  0  0  0
    5.2853   -2.4607    0.1316 C   0  0  0  0  0  0  0  0  0  0  0  0
    5.8719   -2.8247    1.4763 C   0  0  0  0  0  0  0  0  0  0  0  0
    5.2085   -3.7244    2.3239 C   0  0  0  0  0  0  0  0  0  0  0  0
    5.7108   -3.9845    3.5975 C   0  0  0  0  0  0  0  0  0  0  0  0
    5.0485   -4.8351    4.3948 F   0  0  0  0  0  0  0  0  0  0  0  0
    6.8707   -3.3651    4.0436 C   0  0  0  0  0  0  0  0  0  0  0  0
    7.3213   -3.5936    5.2833 F   0  0  0  0  0  0  0  0  0  0  0  0
    7.5470   -2.4975    3.2010 C   0  0  0  0  0  0  0  0  0  0  0  0
    8.6679   -1.8988    3.6215 F   0  0  0  0  0  0  0  0  0  0  0  0
    7.0635   -2.2298    1.9215 C   0  0  0  0  0  0  0  0  0  0  0  0
    5.2269    0.0816   -0.0038 C   0  0  0  0  0  0  0  0  0  0  0  0
    6.4333    0.0143   -0.2482 O   0  0  0  0  0  0  0  0  0  0  0  0
    4.5139    1.2640    0.0781 N   0  0  0  0  0  0  0  0  0  0  0  0
    5.2513    2.4906    0.0322 C   0  0  0  0  0  0  0  0  0  0  0  0
    6.3172    2.7218    0.9117 C   0  0  0  0  0  0  0  0  0  0  0  0
    7.0062    3.9388    0.8756 C   0  0  0  0  0  0  0  0  0  0  0  0
    8.1066    4.2554    1.8381 C   0  0  0  0  0  0  0  0  0  0  0  0
    6.6213    4.8686   -0.0837 C   0  0  0  0  0  0  0  0  0  0  0  0
    5.6104    4.6800   -0.9591 N   0  0  0  0  0  0  0  0  0  0  0  0
    4.9396    3.5070   -0.8683 C   0  0  0  0  0  0  0  0  0  0  0  0
    3.1214    1.3179    0.0655 C   0  0  0  0  0  0  0  0  0  0  0  0
    2.4868    2.3742    0.0059 O   0  0  0  0  0  0  0  0  0  0  0  0
  1  2  1  0
  2  3  1  0
  2 26  1  0
  3  4  1  0
  3  5  2  0
  5  6  1  0
  5 16  1  0
  6  7  1  0
  7  8  2  0
  7 15  1  0
  8  9  1  0
  9 10  1  0
  9 11  2  0
 11 12  1  0
 11 13  1  0
 13 14  1  0
 13 15  2  0
 16 17  2  0
 16 18  1  0
 18 19  1  0
 18 26  1  0
 19 20  2  0
 19 25  1  0
 20 21  1  0
 21 22  1  0
 21 23  2  0
 23 24  1  0
 24 25  2  0
 26 27  2  0
M  END
$$$$
