mol23
     RDKit          3D

 23 25  0  0  0  0  0  0  0  0999 V2000
   -1.8793   -2.4430   -0.2993 C   0  0  0  0  0  0  0  0  0  0  0  0
   -1.1167   -1.1727   -0.1049 C   0  0  0  0  0  0  0  0  0  0  0  0
    0.2672   -1.1621    0.0385 C   0  0  0  0  0  0  0  0  0  0  0  0
    1.0093   -0.0383    0.1544 N   0  0  0  0  0  0  0  0  0  0  0  0
    0.3395    1.1363    0.1098 C   0  0  0  0  0  0  0  0  0  0  0  0
   -1.0462    1.2396    0.0017 C   0  0  0  0  0  0  0  0  0  0  0  0
   -1.7805    0.0570   -0.0968 C   0  0  0  0  0  0  0  0  0  0  0  0
   -1.6899    2.5054   -0.0012 N   0  0  0  0  0  0  0  0  0  0  0  0
   -1.3335    3.4163   -0.9877 C   0  0  0  0  0  0  0  0  0  0  0  0
   -0.5712    3.1915   -1.9259 O   0  0  0  0  0  0  0  0  0  0  0  0
   -1.9209    4.6424   -0.8935 N   0  0  0  0  0  0  0  0  0  0  0  0
   -2.7917    5.0017    0.0820 C   0  0  0  0  0  0  0  0  0  0  0  0
   -3.2257    6.6486   -0.0345 Cl  0  0  0  0  0  0  0  0  0  0  0  0
   -3.2240    4.1433    1.0171 C   0  0  0  0  0  0  0  0  0  0  0  0
   -4.1743    4.4383    2.1604 C   0  0  0  0  0  0  0  0  0  0  0  0
   -5.6116    4.1283    1.8129 C   0  0  0  0  0  0  0  0  0  0  0  0
   -6.1347    2.8399    2.0042 C   0  0  0  0  0  0  0  0  0  0  0  0
   -7.4085    2.5127    1.5354 C   0  0  0  0  0  0  0  0  0  0  0  0
   -8.1830    3.4758    0.8934 C   0  0  0  0  0  0  0  0  0  0  0  0
   -7.7020    4.7766    0.7584 C   0  0  0  0  0  0  0  0  0  0  0  0
   -6.4248    5.1033    1.2185 C   0  0  0  0  0  0  0  0  0  0  0  0
   -2.6566    2.7655    0.9655 C   0  0  0  0  0  0  0  0  0  0  0  0
   -3.0130    1.9467    1.8129 O   0  0  0  0  0  0  0  0  0  0  0  0
  1  2  1  0
  2  3  2  0
  2  7  1  0
  3  4  1  0
  4  5  2  0
  5  6  1  0
  6  7  2  0
  6  8  1  0
  8  9  1  0
  8 22  1  0
  9 10  2  0
  9 11  1  0
 11 12  1  0
 12 13  1  0
 12 14  2  0
 14 15  1  0
 14 22  1  0
 15 16  1  0
 16 17  2  0
 16 21  1  0
 17 18  1  0
 18 19  2  0
 19 20  1  0
 20 21  2  0
 22 23  2  0
M  END
$$$$
