mol25
     RDKit          3D

 37 41  0  0  0  0  0  0  0  0999 V2000
    2.4610   -0.1041   -0.1482 C   0  0  0  0  0  0  0  0  0  0  0  0
    0.9814    0.1103   -0.0830 C   0  0  0  0  0  0  0  0  0  0  0  0
    0.4130    1.3903   -0.1266 C   0  0  0  0  0  0  0  0  0  0  0  0
   -0.9713    1.5569    0.0184 C   0  0  0  0  0  0  0  0  0  0  0  0
   -1.7268    0.3953    0.1815 C   0  0  0  0  0  0  0  0  0  0  0  0
   -1.2177   -0.8619    0.1774 N   0  0  0  0  0  0  0  0  0  0  0  0
    0.1208   -0.9736    0.0484 C   0  0  0  0  0  0  0  0  0  0  0  0
   -1.5663    2.8682    0.0196 N   0  0  0  0  0  0  0  0  0  0  0  0
   -1.2771    3.7243   -1.0268 C   0  0  0  0  0  0  0  0  0  0  0  0
   -0.6107    3.3716   -2.0054 O   0  0  0  0  0  0  0  0  0  0  0  0
   -1.8294    5.0091   -0.9687 N   0  0  0  0  0  0  0  0  0  0  0  0
   -1.6575    5.7986   -2.2068 C   0  0  0  0  0  0  0  0  0  0  0  0
   -2.8541    5.7522   -3.0673 C   0  0  0  0  0  0  0  0  0  0  0  0
   -3.8055    5.7178   -3.7338 N   0  0  0  0  0  0  0  0  0  0  0  0
   -2.6905    5.4562    0.0471 C   0  0  0  0  0  0  0  0  0  0  0  0
   -3.1133    6.7972    0.0767 N   0  0  0  0  0  0  0  0  0  0  0  0
   -4.5076    7.3152   -0.0400 C   0  0  0  0  0  0  0  0  0  0  0  0
   -4.3007    8.6982   -0.5968 C   0  0  0  0  0  0  0  0  0  0  0  0
   -2.9414    9.0232   -0.5570 C   0  0  0  0  0  0  0  0  0  0  0  0
   -2.1918    7.9538    0.1739 C   0  0  0  0  0  0  0  0  0  0  0  0
   -2.4666   10.1978   -1.1197 C   0  0  0  0  0  0  0  0  0  0  0  0
   -3.3876   11.0795   -1.6901 C   0  0  0  0  0  0  0  0  0  0  0  0
   -4.7625   10.7979   -1.6506 C   0  0  0  0  0  0  0  0  0  0  0  0
   -5.2293    9.6001   -1.0969 C   0  0  0  0  0  0  0  0  0  0  0  0
   -3.0736    4.5566    0.9861 C   0  0  0  0  0  0  0  0  0  0  0  0
   -4.0845    4.7651    2.0948 C   0  0  0  0  0  0  0  0  0  0  0  0
   -3.5124    5.2218    3.4182 C   0  0  0  0  0  0  0  0  0  0  0  0
   -3.5447    6.5817    3.7689 C   0  0  0  0  0  0  0  0  0  0  0  0
   -3.0562    7.0055    5.0093 C   0  0  0  0  0  0  0  0  0  0  0  0
   -3.1282    8.3063    5.3149 F   0  0  0  0  0  0  0  0  0  0  0  0
   -2.5269    6.0974    5.9072 C   0  0  0  0  0  0  0  0  0  0  0  0
   -2.0640    6.5182    7.0923 F   0  0  0  0  0  0  0  0  0  0  0  0
   -2.4842    4.7533    5.5733 C   0  0  0  0  0  0  0  0  0  0  0  0
   -1.9777    3.8626    6.4370 F   0  0  0  0  0  0  0  0  0  0  0  0
   -2.9756    4.3101    4.3441 C   0  0  0  0  0  0  0  0  0  0  0  0
   -2.5140    3.1685    0.9746 C   0  0  0  0  0  0  0  0  0  0  0  0
   -2.8748    2.3736    1.8458 O   0  0  0  0  0  0  0  0  0  0  0  0
  1  2  1  0
  2  3  2  0
  2  7  1  0
  3  4  1  0
  4  5  2  0
  4  8  1  0
  5  6  1  0
  6  7  2  0
  8  9  1  0
  8 36  1  0
  9 10  2  0
  9 11  1  0
 11 12  1  0
 11 15  1  0
 12 13  1  0
 13 14  3  0
 15 16  1  0
 15 25  2  0
 16 17  1  0
 16 20  1  0
 17 18  1  0
 18 19  2  0
 18 24  1  0
 19 20  1  0
 19 21  1  0
 21 22  2  0
 22 23  1  0
 23 24  2  0
 25 26  1  0
 25 36  1  0
 26 27  1  0
 27 28  2  0
 27 35  1  0
 28 29  1  0
 29 30  1  0
 29 31  2  0
 31 32  1  0
 31 33  1  0
 33 34  1  0
 33 35  2  0
 36 37  2  0
M  END
$$$$
