mol32
     RDKit          3D

 39 42  0  0  1  0  0  0  0  0999 V2000
   -1.4977   -1.3896    0.5713 Li  0  0  0  0  0 15  0  0  0  0  0  0
    2.0288    0.0071    0.3666 C   0  0  2  0  0  0  0  0  0  0  0  0
    1.0828    1.1217   -0.0704 C   0  0  0  0  0  0  0  0  0  0  0  0
    1.6343    2.0743   -0.9656 O   0  0  0  0  0  0  0  0  0  0  0  0
    2.7587    2.6593   -0.4546 C   0  0  0  0  0  0  0  0  0  0  0  0
    2.9494    4.0101   -0.7577 C   0  0  0  0  0  0  0  0  0  0  0  0
    4.0843    4.6779   -0.3002 C   0  0  0  0  0  0  0  0  0  0  0  0
    5.0133    3.9959    0.4772 C   0  0  0  0  0  0  0  0  0  0  0  0
    4.7964    2.6576    0.8077 C   0  0  0  0  0  0  0  0  0  0  0  0
    3.6841    1.9511    0.3158 C   0  0  0  0  0  0  0  0  0  0  0  0
    3.4706    0.4939    0.6463 C   0  0  2  0  0  0  0  0  0  0  0  0
    4.3161   -0.4552   -0.1272 N   0  0  0  0  0  0  0  0  0  0  0  0
    5.7402   -0.5204    0.2346 C   0  0  0  0  0  0  0  0  0  0  0  0
    6.7476   -0.9326   -0.8349 C   0  0  0  0  0  0  0  0  0  0  0  0
    6.7010   -0.1879   -2.1641 C   0  0  0  0  0  0  0  0  0  0  0  0
    7.7229   -0.7692   -3.1614 C   0  0  0  0  0  0  0  0  0  0  0  0
    7.5287   -2.2476   -3.5168 C   0  0  0  0  0  0  0  0  0  0  0  0
    6.2103   -2.6216   -4.1987 C   0  0  0  0  0  0  0  0  0  0  0  0
    5.6926   -1.7422   -4.9373 O   0  0  0  0  0  0  0  0  0  0  0  0
    5.7811   -3.7773   -3.9048 O   0  0  0  0  0  0  0  0  0  0  0  0
    3.5130   -1.4764   -0.6842 C   0  0  0  0  0  0  0  0  0  0  0  0
    4.0831   -2.7286   -1.3185 C   0  0  0  0  0  0  0  0  0  0  0  0
    4.8248   -3.7101   -0.4101 C   0  0  0  0  0  0  0  0  0  0  0  0
    4.0458   -4.2835    0.7083 C   0  0  0  0  0  0  0  0  0  0  0  0
    2.9483   -3.8682    1.3138 N   0  0  0  0  0  0  0  0  0  0  0  0
    2.8202   -4.6422    2.4550 N   0  0  0  0  0  0  0  0  0  0  0  0
    3.8348   -5.4831    2.4539 C   0  0  0  0  0  0  0  0  0  0  0  0
    4.6445   -5.3264    1.3647 O   0  0  0  0  0  0  0  0  0  0  0  0
    4.2464   -6.4775    3.4364 C   0  0  0  0  0  0  0  0  0  0  0  0
    5.0273   -7.5863    3.0770 C   0  0  0  0  0  0  0  0  0  0  0  0
    5.3796   -8.5493    4.0275 C   0  0  0  0  0  0  0  0  0  0  0  0
    4.9696   -8.4046    5.3511 C   0  0  0  0  0  0  0  0  0  0  0  0
    4.2172   -7.2941    5.7291 C   0  0  0  0  0  0  0  0  0  0  0  0
    3.8557   -6.3372    4.7758 C   0  0  0  0  0  0  0  0  0  0  0  0
    2.2070   -1.1761   -0.5623 C   0  0  0  0  0  0  0  0  0  0  0  0
    0.9984   -1.9051   -1.0210 C   0  0  0  0  0  0  0  0  0  0  0  0
   -0.0853   -1.7429   -0.4574 O   0  0  0  0  0  0  0  0  0  0  0  0
    1.1998   -2.6608   -2.1109 O   0  0  0  0  0  0  0  0  0  0  0  0
    0.1019   -3.4046   -2.6570 C   0  0  0  0  0  0  0  0  0  0  0  0
  2  3  1  6
  2 11  1  0
  2 35  1  0
  3  4  1  0
  4  5  1  0
  5  6  2  0
  5 10  1  0
  6  7  1  0
  7  8  2  0
  8  9  1  0
  9 10  2  0
 10 11  1  0
 11 12  1  6
 12 13  1  0
 12 21  1  0
 13 14  1  0
 14 15  1  0
 15 16  1  0
 16 17  1  0
 17 18  1  0
 18 19  1  0
 18 20  2  0
 21 22  1  0
 21 35  2  0
 22 23  1  0
 23 24  1  0
 24 25  2  0
 24 28  1  0
 25 26  1  0
 26 27  2  0
 27 28  1  0
 27 29  1  0
 29 30  2  0
 29 34  1  0
 30 31  1  0
 31 32  2  0
 32 33  1  0
 33 34  2  0
 35 36  1  0
 36 37  2  0
 36 38  1  0
 38 39  1  0
M  CHG  2   1   1  19  -1
M  END
$$$$
