mol39
     RDKit          3D

 23 24  0  0  1  0  0  0  0  0999 V2000
    4.7323   -3.9186    0.0513 C   0  0  0  0  0  0  0  0  0  0  0  0
    4.3695   -2.7462   -0.8549 C   0  0  0  0  0  0  0  0  0  0  0  0
    4.6326   -2.9415   -2.3047 N   0  0  0  0  0  0  0  0  0  0  0  0
    3.8789   -4.1240   -2.8054 C   0  0  0  0  0  0  0  0  0  0  0  0
    4.0744   -4.5209   -4.2827 C   0  0  0  0  0  0  0  0  0  0  0  0
    5.4283   -4.8350   -4.5793 O   0  0  0  0  0  0  0  0  0  0  0  0
    4.2688   -1.7144   -3.0451 C   0  0  0  0  0  0  0  0  0  0  0  0
    5.0319   -0.4405   -2.6251 C   0  0  0  0  0  0  0  0  0  0  0  0
    6.5606   -0.5413   -2.7155 C   0  0  0  0  0  0  0  0  0  0  0  0
    7.1027   -0.7808   -4.1328 C   0  0  1  0  0  0  0  0  0  0  0  0
    6.7917    0.3903   -5.0706 C   0  0  0  0  0  0  0  0  0  0  0  0
    8.5574   -0.9717   -4.0776 N   0  0  0  0  0  0  0  0  0  0  0  0
    9.1537   -2.2356   -3.9157 C   0  0  0  0  0  0  0  0  0  0  0  0
    8.3842   -3.3806   -3.7259 C   0  0  0  0  0  0  0  0  0  0  0  0
    8.9698   -4.6284   -3.7817 C   0  0  0  0  0  0  0  0  0  0  0  0
   10.2791   -4.8221   -4.0064 N   0  0  0  0  0  0  0  0  0  0  0  0
   11.0516   -3.7391   -4.1424 C   0  0  0  0  0  0  0  0  0  0  0  0
   12.4019   -3.9596   -4.3599 C   0  0  0  0  0  0  0  0  0  0  0  0
   13.2935   -2.9016   -4.4893 C   0  0  0  0  0  0  0  0  0  0  0  0
   14.9593   -3.2187   -4.7808 Cl  0  0  0  0  0  0  0  0  0  0  0  0
   12.8451   -1.5924   -4.3920 C   0  0  0  0  0  0  0  0  0  0  0  0
   11.4834   -1.3471   -4.2035 C   0  0  0  0  0  0  0  0  0  0  0  0
   10.5549   -2.4111   -4.0837 C   0  0  0  0  0  0  0  0  0  0  0  0
  1  2  1  0
  2  3  1  0
  3  4  1  0
  3  7  1  0
  4  5  1  0
  5  6  1  0
  7  8  1  0
  8  9  1  0
  9 10  1  0
 10 11  1  6
 10 12  1  0
 12 13  1  0
 13 14  2  0
 13 23  1  0
 14 15  1  0
 15 16  2  0
 16 17  1  0
 17 18  1  0
 17 23  2  0
 18 19  2  0
 19 20  1  0
 19 21  1  0
 21 22  2  0
 22 23  1  0
M  END
$$$$
