mol33
     RDKit          3D

 35 39  0  0  1  0  0  0  0  0999 V2000
   62.3552   -9.2248    0.0082 Cl  0  0  0  0  0  0  0  0  0  0  0  0
   -0.2670    3.1570    3.6218 C   0  0  2  0  0  0  0  0  0  0  0  0
    0.6067    2.1749    2.8385 C   0  0  0  0  0  0  0  0  0  0  0  0
    0.7586    2.5406    1.2799 C   0  0  0  0  0  0  0  0  0  0  0  0
   -0.6748    2.4969    0.6991 C   0  0  2  0  0  0  0  0  0  0  0  0
   -0.9244    0.8936    0.8158 C   0  0  0  0  0  0  0  0  0  0  0  0
   -2.3453    0.5039    0.7648 C   0  0  0  0  0  0  0  0  0  0  0  0
   -3.0298    1.2694   -0.3522 C   0  0  0  0  0  0  0  0  0  0  0  0
   -2.1335    2.1893   -1.1876 C   0  0  0  0  0  0  0  0  0  0  0  0
   -0.9679    2.7079   -0.7414 C   0  0  0  0  0  0  0  0  0  0  0  0
   -3.6217    0.4372   -1.0887 N   0  0  0  0  0  0  0  0  0  0  0  0
   -2.8066   -0.3795   -1.8297 N   0  0  0  0  0  0  0  0  0  0  0  0
   -3.2950   -0.8855   -2.9780 C   0  0  0  0  0  0  0  0  0  0  0  0
   -2.4189   -1.1534   -4.0300 C   0  0  0  0  0  0  0  0  0  0  0  0
   -2.9591   -1.3380   -5.2831 C   0  0  0  0  0  0  0  0  0  0  0  0
   -4.3481   -1.3754   -5.3859 C   0  0  0  0  0  0  0  0  0  0  0  0
   -4.9426   -1.2369   -6.5852 O   0  0  0  0  0  0  0  0  0  0  0  0
   -6.1736   -1.7486   -6.8941 C   0  0  0  0  0  0  0  0  0  0  0  0
   -6.5315   -2.7261   -6.0109 F   0  0  0  0  0  0  0  0  0  0  0  0
   -6.0353   -2.3820   -8.0781 F   0  0  0  0  0  0  0  0  0  0  0  0
   -7.1880   -0.8060   -6.9577 F   0  0  0  0  0  0  0  0  0  0  0  0
   -5.1247   -1.5022   -4.2272 C   0  0  0  0  0  0  0  0  0  0  0  0
   -4.6318   -1.0828   -3.0567 C   0  0  0  0  0  0  0  0  0  0  0  0
   -1.3838    3.7273    1.4195 N   0  0  0  0  0  0  0  0  0  0  0  0
   -2.0195    4.8921    1.0767 C   0  0  0  0  0  0  0  0  0  0  0  0
   -2.5269    5.5772   -0.0994 C   0  0  0  0  0  0  0  0  0  0  0  0
   -2.8778    6.9553   -0.0170 C   0  0  0  0  0  0  0  0  0  0  0  0
   -2.6973    7.7198    1.1499 C   0  0  0  0  0  0  0  0  0  0  0  0
   -2.3413    7.0471    2.3040 C   0  0  0  0  0  0  0  0  0  0  0  0
   -2.1028    5.6893    2.2392 C   0  0  0  0  0  0  0  0  0  0  0  0
   -1.7491    4.9405    3.2711 C   0  0  0  0  0  0  0  0  0  0  0  0
   -2.8124    4.3348    4.1515 C   0  0  0  0  0  0  0  0  0  0  0  0
   -2.1097    3.5345    5.2584 C   0  0  0  0  0  0  0  0  0  0  0  0
   -1.0834    2.5784    4.7263 N   0  0  0  0  0  0  0  0  0  0  0  0
   -1.1367    3.8594    2.7247 C   0  0  0  0  0  0  0  0  0  0  0  0
  2  3  1  6
  2 34  1  0
  2 35  1  0
  3  4  1  0
  5  4  1  6
  5  6  1  0
  5 10  1  0
  5 24  1  0
  6  7  1  0
  7  8  1  0
  8  9  1  0
  8 11  2  3
  9 10  2  0
 11 12  1  0
 12 13  1  0
 13 14  2  0
 13 23  1  0
 14 15  1  0
 15 16  2  0
 16 17  1  0
 16 22  1  0
 17 18  1  0
 18 19  1  0
 18 20  1  0
 18 21  1  0
 22 23  2  0
 24 25  1  0
 24 35  1  0
 25 26  2  0
 25 30  1  0
 26 27  1  0
 27 28  2  0
 28 29  1  0
 29 30  2  0
 30 31  1  0
 31 32  1  0
 31 35  2  0
 32 33  1  0
 33 34  1  0
M  END
$$$$
