mol35
     RDKit          3D

 28 32  0  0  1  0  0  0  0  0999 V2000
    0.4954   -1.7129   -2.3001 C   0  0  2  0  0  0  0  0  0  0  0  0
    1.0239   -3.1481   -2.2007 C   0  0  0  0  0  0  0  0  0  0  0  0
    2.4715   -3.2112   -1.6842 C   0  0  0  0  0  0  0  0  0  0  0  0
    2.6963   -2.4044   -0.3635 C   0  0  1  0  0  0  0  0  0  0  0  0
    4.1790   -1.9977   -0.2996 C   0  0  0  0  0  0  0  0  0  0  0  0
    4.5508   -0.9205    0.7231 C   0  0  0  0  0  0  0  0  0  0  0  0
    3.3722   -0.3464    1.4490 C   0  0  0  0  0  0  0  0  0  0  0  0
    3.4281   -0.0674    2.6475 O   0  0  0  0  0  0  0  0  0  0  0  0
    2.1715   -0.0128    0.6203 C   0  0  0  0  0  0  0  0  0  0  0  0
    1.7731   -1.1432   -0.3453 C   0  0  1  0  0  0  0  0  0  0  0  0
    1.5054   -0.7130   -1.7806 N   0  0  0  0  0  0  0  0  0  0  0  0
    0.7029    0.5440   -1.9293 C   0  0  0  0  0  0  0  0  0  0  0  0
   -0.6399    0.1131   -1.5038 C   0  0  0  0  0  0  0  0  0  0  0  0
   -0.7629   -1.2206   -1.5808 C   0  0  0  0  0  0  0  0  0  0  0  0
   -1.5770   -1.9229   -0.7241 N   0  0  0  0  0  0  0  0  0  0  0  0
   -2.3112   -1.2089    0.2668 C   0  0  0  0  0  0  0  0  0  0  0  0
   -3.0521   -1.9398    1.2051 C   0  0  0  0  0  0  0  0  0  0  0  0
   -4.0672   -1.2985    1.9032 C   0  0  0  0  0  0  0  0  0  0  0  0
   -4.3009    0.0699    1.7192 C   0  0  0  0  0  0  0  0  0  0  0  0
   -5.4592    0.6795    2.1237 O   0  0  0  0  0  0  0  0  0  0  0  0
   -6.6202   -0.1570    2.1185 C   0  0  0  0  0  0  0  0  0  0  0  0
   -3.3543    0.8651    1.0713 C   0  0  0  0  0  0  0  0  0  0  0  0
   -3.2983    2.3439    1.3623 C   0  0  0  0  0  0  0  0  0  0  0  0
   -2.4022    0.1984    0.2674 C   0  0  0  0  0  0  0  0  0  0  0  0
   -1.4539    0.9371   -0.6061 C   0  0  0  0  0  0  0  0  0  0  0  0
   -1.2735    2.1444   -0.5793 O   0  0  0  0  0  0  0  0  0  0  0  0
    2.3454   -3.4143    0.6046 O   0  0  0  0  0  0  0  0  0  0  0  0
    2.1949   -3.1166    1.9762 C   0  0  0  0  0  0  0  0  0  0  0  0
  1  2  1  1
  1 11  1  0
  1 14  1  0
  2  3  1  0
  3  4  1  0
  4  5  1  0
  4 10  1  0
  4 27  1  1
  5  6  1  0
  6  7  1  0
  7  8  2  0
  7  9  1  0
 10  9  1  1
 10 11  1  0
 11 12  1  0
 12 13  1  0
 13 14  2  0
 13 25  1  0
 14 15  1  0
 15 16  1  0
 16 17  2  0
 16 24  1  0
 17 18  1  0
 18 19  2  0
 19 20  1  0
 19 22  1  0
 20 21  1  0
 22 23  1  0
 22 24  2  0
 24 25  1  0
 25 26  2  0
 27 28  1  0
M  END
$$$$
