mol34
     RDKit          3D

 29 31  0  0  1  0  0  0  0  0999 V2000
    1.8724   -0.1757    0.2807 C   0  0  2  0  0  0  0  0  0  0  0  0
    0.9346    0.9589   -0.1229 C   0  0  0  0  0  0  0  0  0  0  0  0
    1.5004    1.9029   -1.0294 O   0  0  0  0  0  0  0  0  0  0  0  0
    2.6400    2.4701   -0.5342 C   0  0  0  0  0  0  0  0  0  0  0  0
    2.8518    3.8186   -0.8305 C   0  0  0  0  0  0  0  0  0  0  0  0
    4.0047    4.4622   -0.3841 C   0  0  0  0  0  0  0  0  0  0  0  0
    4.9421    3.7558    0.3603 C   0  0  0  0  0  0  0  0  0  0  0  0
    4.7125    2.4146    0.6707 C   0  0  0  0  0  0  0  0  0  0  0  0
    3.5672    1.7422    0.2106 C   0  0  0  0  0  0  0  0  0  0  0  0
    3.3127    0.2980    0.5602 C   0  0  2  0  0  0  0  0  0  0  0  0
    4.1537   -0.6715   -0.1937 N   0  0  0  0  0  0  0  0  0  0  0  0
    5.6079   -0.6887    0.0290 C   0  0  0  0  0  0  0  0  0  0  0  0
    5.9685   -0.9565    1.5021 C   0  0  0  0  0  0  0  0  0  0  0  0
    7.4762   -0.8994    1.8323 C   0  0  0  0  0  0  0  0  0  0  0  0
    8.1136    0.4595    1.5286 C   0  0  0  0  0  0  0  0  0  0  0  0
    7.6855   -1.2197    3.3177 C   0  0  0  0  0  0  0  0  0  0  0  0
    3.3545   -1.6141   -0.8833 C   0  0  0  0  0  0  0  0  0  0  0  0
    3.9378   -2.8693   -1.5010 C   0  0  0  0  0  0  0  0  0  0  0  0
    3.8115   -3.1465   -3.0026 C   0  0  0  0  0  0  0  0  0  0  0  0
    4.3916   -2.0905   -3.9364 C   0  0  0  0  0  0  0  0  0  0  0  0
    4.2191   -2.5607   -5.3616 C   0  0  0  0  0  0  0  0  0  0  0  0
    5.0601   -3.1992   -5.9839 O   0  0  0  0  0  0  0  0  0  0  0  0
    2.9794   -2.2355   -5.8239 O   0  0  0  0  0  0  0  0  0  0  0  0
    2.6649   -2.7190   -7.1330 C   0  0  0  0  0  0  0  0  0  0  0  0
    2.0434   -1.3368   -0.6888 C   0  0  0  0  0  0  0  0  0  0  0  0
    0.7978   -2.0568   -1.0384 C   0  0  0  0  0  0  0  0  0  0  0  0
   -0.2480   -1.8572   -0.4311 O   0  0  0  0  0  0  0  0  0  0  0  0
    0.9335   -2.8833   -2.0898 O   0  0  0  0  0  0  0  0  0  0  0  0
   -0.2591   -3.5333   -2.5526 C   0  0  0  0  0  0  0  0  0  0  0  0
  1  2  1  6
  1 10  1  0
  1 25  1  0
  2  3  1  0
  3  4  1  0
  4  5  2  0
  4  9  1  0
  5  6  1  0
  6  7  2  0
  7  8  1  0
  8  9  2  0
  9 10  1  0
 10 11  1  6
 11 12  1  0
 11 17  1  0
 12 13  1  0
 13 14  1  0
 14 15  1  0
 14 16  1  0
 17 18  1  0
 17 25  2  0
 18 19  1  0
 19 20  1  0
 20 21  1  0
 21 22  2  0
 21 23  1  0
 23 24  1  0
 25 26  1  0
 26 27  2  0
 26 28  1  0
 28 29  1  0
M  END
$$$$
