mol30
     RDKit          3D

 24 28  0  0  1  0  0  0  0  0999 V2000
   -0.0661    6.8868    0.6556 C   0  0  2  0  0  0  0  0  0  0  0  0
    1.3351    6.3236    0.9011 C   0  0  0  0  0  0  0  0  0  0  0  0
    1.2718    4.8443    1.2160 C   0  0  0  0  0  0  0  0  0  0  0  0
    0.5827    4.0552    0.0944 C   0  0  1  0  0  0  0  0  0  0  0  0
    1.3229    4.0811   -1.1407 O   0  0  0  0  0  0  0  0  0  0  0  0
    2.6319    3.5421   -1.1718 C   0  0  0  0  0  0  0  0  0  0  0  0
    0.4341    2.6250    0.5779 C   0  0  0  0  0  0  0  0  0  0  0  0
   -0.7208    2.0028    0.8192 C   0  0  0  0  0  0  0  0  0  0  0  0
   -1.9985    2.7336    0.6709 C   0  0  0  0  0  0  0  0  0  0  0  0
   -3.0495    2.1023    0.6424 O   0  0  0  0  0  0  0  0  0  0  0  0
   -1.9358    4.2415    0.6574 C   0  0  0  0  0  0  0  0  0  0  0  0
   -0.8160    4.7036   -0.2789 C   0  0  1  0  0  0  0  0  0  0  0  0
   -0.8674    6.1805   -0.3728 N   0  0  0  0  0  0  0  0  0  0  0  0
   -0.6726    6.6882   -1.7510 C   0  0  0  0  0  0  0  0  0  0  0  0
   -0.8991    8.2141   -1.9472 C   0  0  0  0  0  0  0  0  0  0  0  0
   -0.3913    8.9919   -0.7906 C   0  0  0  0  0  0  0  0  0  0  0  0
    0.0125    8.3448    0.3582 C   0  0  0  0  0  0  0  0  0  0  0  0
    0.4707    9.2858    1.2316 N   0  0  0  0  0  0  0  0  0  0  0  0
    0.0974   10.5324    0.7946 C   0  0  0  0  0  0  0  0  0  0  0  0
    0.1155   11.7514    1.4780 C   0  0  0  0  0  0  0  0  0  0  0  0
   -0.3720   12.8685    0.8017 C   0  0  0  0  0  0  0  0  0  0  0  0
   -0.7861   12.7774   -0.5270 C   0  0  0  0  0  0  0  0  0  0  0  0
   -0.7734   11.5492   -1.2068 C   0  0  0  0  0  0  0  0  0  0  0  0
   -0.3684   10.3895   -0.5170 C   0  0  0  0  0  0  0  0  0  0  0  0
  1  2  1  6
  1 13  1  0
  1 17  1  0
  2  3  1  0
  3  4  1  0
  4  5  1  6
  4  7  1  0
  4 12  1  0
  5  6  1  0
  7  8  2  0
  8  9  1  0
  9 10  2  0
  9 11  1  0
 12 11  1  1
 12 13  1  0
 13 14  1  0
 14 15  1  0
 15 16  1  0
 16 17  2  0
 16 24  1  0
 17 18  1  0
 18 19  1  0
 19 20  1  0
 19 24  2  0
 20 21  2  0
 21 22  1  0
 22 23  2  0
 23 24  1  0
M  END
$$$$
