mol36
     RDKit          3D

 34 40  0  0  1  0  0  0  0  0999 V2000
    0.8398    1.2438    0.8644 C   0  0  1  0  0  0  0  0  0  0  0  0
    1.5868    0.4029    1.9342 C   0  0  0  0  0  0  0  0  0  0  0  0
    2.8478   -0.1162    1.5027 O   0  0  0  0  0  0  0  0  0  0  0  0
    3.6974    0.7653    0.7355 C   0  0  1  0  0  0  0  0  0  0  0  0
    4.6069    1.4576    1.7583 C   0  0  0  0  0  0  0  0  0  0  0  0
    4.4850   -0.2200   -0.1651 C   0  0  0  0  0  0  0  0  0  0  0  0
    5.2995    0.4250   -1.2723 C   0  0  0  0  0  0  0  0  0  0  0  0
    4.4066    1.3434   -2.0594 C   0  0  0  0  0  0  0  0  0  0  0  0
    4.2951    1.2805   -3.2809 O   0  0  0  0  0  0  0  0  0  0  0  0
    3.7548    2.4235   -1.2522 C   0  0  0  0  0  0  0  0  0  0  0  0
    2.9077    1.8319   -0.1201 C   0  0  1  0  0  0  0  0  0  0  0  0
    1.5821    1.2456   -0.4264 N   0  0  0  0  0  0  0  0  0  0  0  0
    0.8365    1.7110   -1.5812 C   0  0  0  0  0  0  0  0  0  0  0  0
   -0.4399    2.4799   -1.2472 C   0  0  0  0  0  0  0  0  0  0  0  0
   -1.4094    1.6453   -0.3958 C   0  0  1  0  0  0  0  0  0  0  0  0
   -1.8296    0.3452   -1.0736 C   0  0  0  0  0  0  0  0  0  0  0  0
   -2.3478    0.1305   -2.3494 C   0  0  0  0  0  0  0  0  0  0  0  0
   -2.8859   -1.1193   -2.6552 C   0  0  0  0  0  0  0  0  0  0  0  0
   -2.8623   -2.1513   -1.7101 C   0  0  0  0  0  0  0  0  0  0  0  0
   -2.2645   -1.9518   -0.4660 C   0  0  0  0  0  0  0  0  0  0  0  0
   -1.7401   -0.7064   -0.1704 C   0  0  0  0  0  0  0  0  0  0  0  0
   -1.0945   -0.3833    1.0299 N   0  0  0  0  0  0  0  0  0  0  0  0
   -0.7128    1.0395    0.9120 C   0  0  1  0  0  0  0  0  0  0  0  0
   -1.1182    1.6178    2.1732 O   0  0  0  0  0  0  0  0  0  0  0  0
   -1.5794    2.8799    2.1621 C   0  0  0  0  0  0  0  0  0  0  0  0
   -1.1410    3.7878    2.8453 O   0  0  0  0  0  0  0  0  0  0  0  0
   -2.7601    2.9390    1.2992 C   0  0  0  0  0  0  0  0  0  0  0  0
   -2.6519    2.4538   -0.0103 C   0  0  0  0  0  0  0  0  0  0  0  0
   -3.7759    2.5554   -0.8546 C   0  0  0  0  0  0  0  0  0  0  0  0
   -5.0231    2.8451   -0.3255 C   0  0  0  0  0  0  0  0  0  0  0  0
   -5.1304    3.1542    1.0204 C   0  0  0  0  0  0  0  0  0  0  0  0
   -6.3541    3.2228    1.6255 O   0  0  0  0  0  0  0  0  0  0  0  0
   -4.0035    3.2956    1.8164 C   0  0  0  0  0  0  0  0  0  0  0  0
   -4.1573    3.6478    3.1261 O   0  0  0  0  0  0  0  0  0  0  0  0
  1  2  1  1
  1 12  1  0
  1 23  1  0
  2  3  1  0
  3  4  1  0
  4  5  1  1
  4  6  1  0
  4 11  1  0
  6  7  1  0
  7  8  1  0
  8  9  2  0
  8 10  1  0
 11 10  1  6
 11 12  1  0
 12 13  1  0
 13 14  1  0
 15 14  1  6
 15 16  1  0
 15 23  1  0
 15 28  1  0
 16 17  1  0
 16 21  2  0
 17 18  2  0
 18 19  1  0
 19 20  2  0
 20 21  1  0
 21 22  1  0
 23 22  1  1
 23 24  1  0
 24 25  1  0
 25 26  2  0
 25 27  1  0
 27 28  2  0
 27 33  1  0
 28 29  1  0
 29 30  2  0
 30 31  1  0
 31 32  1  0
 31 33  2  0
 33 34  1  0
M  END
$$$$
