mol38
     RDKit          3D

 43 47  0  0  1  0  0  0  0  0999 V2000
    0.6597   -4.3175   -3.7122 C   0  0  0  0  0  0  0  0  0  0  0  0
    1.2559   -2.9390   -3.3959 C   0  0  2  0  0  0  0  0  0  0  0  0
    1.3291   -2.1781   -4.6134 O   0  0  0  0  0  0  0  0  0  0  0  0
    1.9640   -0.8871   -4.5085 C   0  0  1  0  0  0  0  0  0  0  0  0
    1.2311    0.0868   -3.7370 O   0  0  0  0  0  0  0  0  0  0  0  0
    0.1645    0.7904   -4.4314 C   0  0  0  0  0  0  0  0  0  0  0  0
   -0.3175    2.0371   -3.5871 C   0  0  1  0  0  0  0  0  0  0  0  0
    0.5735    3.1643   -3.7643 O   0  0  0  0  0  0  0  0  0  0  0  0
    0.3539    4.1987   -2.7629 C   0  0  1  0  0  0  0  0  0  0  0  0
    1.3628    5.2206   -2.9138 O   0  0  0  0  0  0  0  0  0  0  0  0
    1.7478    6.0298   -1.8419 C   0  0  0  0  0  0  0  0  0  0  0  0
    2.2519    7.2648   -2.0507 C   0  0  0  0  0  0  0  0  0  0  0  0
    2.7370    8.1197   -1.0791 O   0  0  0  0  0  0  0  0  0  0  0  0
    2.8651    7.6770    0.1971 C   0  0  0  0  0  0  0  0  0  0  0  0
    2.3566    6.4537    0.6055 C   0  0  0  0  0  0  0  0  0  0  0  0
    2.5031    6.0888    1.9495 C   0  0  0  0  0  0  0  0  0  0  0  0
    2.0316    4.8996    2.4418 O   0  0  0  0  0  0  0  0  0  0  0  0
    3.1555    6.9254    2.8533 C   0  0  0  0  0  0  0  0  0  0  0  0
    3.6659    8.1408    2.4118 C   0  0  0  0  0  0  0  0  0  0  0  0
    4.3228    8.9940    3.2481 O   0  0  0  0  0  0  0  0  0  0  0  0
    3.5245    8.5252    1.0868 C   0  0  0  0  0  0  0  0  0  0  0  0
    1.7117    5.5921   -0.4040 C   0  0  0  0  0  0  0  0  0  0  0  0
    1.2000    4.5389   -0.0089 O   0  0  0  0  0  0  0  0  0  0  0  0
    2.3879    7.9446   -3.3406 C   0  0  0  0  0  0  0  0  0  0  0  0
    1.4428    8.9267   -3.6655 C   0  0  0  0  0  0  0  0  0  0  0  0
    1.7449    9.8560   -4.6492 C   0  0  0  0  0  0  0  0  0  0  0  0
    0.8662   10.8765   -4.8610 O   0  0  0  0  0  0  0  0  0  0  0  0
    2.9572    9.7885   -5.3354 C   0  0  0  0  0  0  0  0  0  0  0  0
    3.3188   10.7621   -6.2202 O   0  0  0  0  0  0  0  0  0  0  0  0
    3.8778    8.7869   -5.0530 C   0  0  0  0  0  0  0  0  0  0  0  0
    3.6004    7.8708   -4.0381 C   0  0  0  0  0  0  0  0  0  0  0  0
   -1.0490    4.8222   -2.9510 C   0  0  2  0  0  0  0  0  0  0  0  0
   -1.3631    5.7637   -1.9071 O   0  0  0  0  0  0  0  0  0  0  0  0
   -2.1375    3.7329   -3.0253 C   0  0  1  0  0  0  0  0  0  0  0  0
   -3.3858    4.3089   -3.4663 O   0  0  0  0  0  0  0  0  0  0  0  0
   -1.7546    2.5177   -3.9126 C   0  0  2  0  0  0  0  0  0  0  0  0
   -2.6836    1.4617   -3.6409 O   0  0  0  0  0  0  0  0  0  0  0  0
    3.3897   -1.0650   -3.9129 C   0  0  2  0  0  0  0  0  0  0  0  0
    4.2579   -1.8241   -4.7862 O   0  0  0  0  0  0  0  0  0  0  0  0
    3.3259   -1.7812   -2.5581 C   0  0  2  0  0  0  0  0  0  0  0  0
    4.6501   -1.9712   -2.0358 O   0  0  0  0  0  0  0  0  0  0  0  0
    2.6177   -3.1339   -2.7032 C   0  0  1  0  0  0  0  0  0  0  0  0
    2.4329   -3.7741   -1.4341 O   0  0  0  0  0  0  0  0  0  0  0  0
  2  1  1  6
  2  3  1  0
  2 42  1  0
  3  4  1  0
  4 38  1  0
  4  5  1  1
  5  6  1  0
  7  8  1  0
  7 36  1  0
  7  6  1  6
  8  9  1  0
  9 32  1  0
  9 10  1  6
 10 11  1  0
 11 12  2  0
 11 22  1  0
 12 13  1  0
 12 24  1  0
 13 14  1  0
 14 15  2  0
 14 21  1  0
 15 16  1  0
 15 22  1  0
 16 17  1  0
 16 18  2  0
 18 19  1  0
 19 20  1  0
 19 21  2  0
 22 23  2  0
 24 25  2  0
 24 31  1  0
 25 26  1  0
 26 27  1  0
 26 28  2  0
 28 29  1  0
 28 30  1  0
 30 31  2  0
 32 33  1  1
 32 34  1  0
 34 35  1  6
 34 36  1  0
 36 37  1  1
 38 39  1  6
 38 40  1  0
 40 41  1  6
 40 42  1  0
 42 43  1  1
M  END
$$$$
