mol31
     RDKit          3D

 48 52  0  0  1  0  0  0  0  0999 V2000
    3.1883    3.6919   -3.7746 C   0  0  0  0  0  0  0  0  0  0  0  0
    4.2917    3.5974   -2.8722 O   0  0  0  0  0  0  0  0  0  0  0  0
    4.3367    2.4344   -2.1318 C   0  0  0  0  0  0  0  0  0  0  0  0
    3.6709    1.4519   -2.3607 O   0  0  0  0  0  0  0  0  0  0  0  0
    5.4141    2.5400   -1.0298 C   0  0  0  0  0  0  0  0  0  0  0  0
    6.9140    3.2677   -0.7569 C   0  0  2  0  0  0  0  0  0  0  0  0
    8.2450    3.9747   -1.3829 C   0  0  0  0  0  0  0  0  0  0  0  0
    9.5889    3.1416   -1.8388 O   0  0  0  0  0  0  0  0  0  0  0  0
   10.1588    2.0140   -2.5235 C   0  0  0  0  0  0  0  0  0  0  0  0
   11.5785    2.1135   -2.5796 C   0  0  0  0  0  0  0  0  0  0  0  0
   12.3846    1.0997   -3.1316 C   0  0  0  0  0  0  0  0  0  0  0  0
   14.1976    1.4243   -3.5841 Br  0  0  0  0  0  0  0  0  0  0  0  0
   11.8442   -0.1331   -3.4479 C   0  0  0  0  0  0  0  0  0  0  0  0
   10.4639   -0.2415   -3.5233 C   0  0  0  0  0  0  0  0  0  0  0  0
    9.6226    0.8742   -3.2791 C   0  0  0  0  0  0  0  0  0  0  0  0
    8.1411    0.6705   -3.7539 C   0  0  1  0  0  0  0  0  0  0  0  0
    7.5256    1.7121   -3.0430 N   0  0  0  0  0  0  0  0  0  0  0  0
    7.6811    3.0881   -3.9072 C   0  0  0  0  0  0  0  0  0  0  0  0
    8.7971    3.5043   -4.9548 C   0  0  0  0  0  0  0  0  0  0  0  0
    8.5460    3.7086   -6.2994 C   0  0  0  0  0  0  0  0  0  0  0  0
    9.5403    4.1854   -7.1818 C   0  0  0  0  0  0  0  0  0  0  0  0
   10.8520    4.4437   -6.7631 C   0  0  0  0  0  0  0  0  0  0  0  0
   11.1409    4.3582   -5.4150 C   0  0  0  0  0  0  0  0  0  0  0  0
   12.3290    4.5719   -4.8002 O   0  0  0  0  0  0  0  0  0  0  0  0
   13.3878    5.2419   -5.4719 C   0  0  0  0  0  0  0  0  0  0  0  0
   10.0859    3.9864   -4.5743 C   0  0  0  0  0  0  0  0  0  0  0  0
    7.5773    1.1999   -1.6323 C   0  0  0  0  0  0  0  0  0  0  0  0
    7.4934   -0.0218   -1.4095 O   0  0  0  0  0  0  0  0  0  0  0  0
    7.7351    2.0887   -0.3945 C   0  0  2  0  0  0  0  0  0  0  0  0
    7.4508    1.4670    0.9043 C   0  0  0  0  0  0  0  0  0  0  0  0
    6.6489    1.8437    1.8761 N   0  0  0  0  0  0  0  0  0  0  0  0
    6.9216    0.9990    2.9283 N   0  0  0  0  0  0  0  0  0  0  0  0
    7.8990    0.2061    2.5325 C   0  0  0  0  0  0  0  0  0  0  0  0
    8.3366    0.4995    1.2810 O   0  0  0  0  0  0  0  0  0  0  0  0
    8.4896   -0.9480    3.1749 C   0  0  0  0  0  0  0  0  0  0  0  0
    8.0089   -1.3088    4.4380 C   0  0  0  0  0  0  0  0  0  0  0  0
    8.4660   -2.4601    5.0686 C   0  0  0  0  0  0  0  0  0  0  0  0
    9.4254   -3.2677    4.4524 C   0  0  0  0  0  0  0  0  0  0  0  0
    9.9055   -4.5196    5.1210 C   0  0  0  0  0  0  0  0  0  0  0  0
    9.9228   -2.9067    3.1941 C   0  0  0  0  0  0  0  0  0  0  0  0
    9.4592   -1.7520    2.5594 C   0  0  0  0  0  0  0  0  0  0  0  0
    7.6312    0.6978   -5.2617 C   0  0  0  0  0  0  0  0  0  0  0  0
    8.3670    0.3995   -6.1769 O   0  0  0  0  0  0  0  0  0  0  0  0
    6.2434    1.0097   -5.4522 N   0  0  0  0  0  0  0  0  0  0  0  0
    5.5027    1.2802   -6.7526 C   0  0  0  0  0  0  0  0  0  0  0  0
    6.3618    1.0330   -7.9972 C   0  0  0  0  0  0  0  0  0  0  0  0
    4.2328    0.3986   -6.8592 C   0  0  0  0  0  0  0  0  0  0  0  0
    4.9546    2.7333   -6.8338 C   0  0  0  0  0  0  0  0  0  0  0  0
  1  2  1  0
  2  3  1  0
  3  4  2  0
  3  5  1  0
  6  5  1  6
  6  7  1  0
  6 29  1  0
  7  8  1  0
  8  9  1  0
  9 10  2  0
  9 15  1  0
 10 11  1  0
 11 12  1  0
 11 13  2  0
 13 14  1  0
 14 15  2  0
 15 16  1  0
 16 17  1  0
 16 42  1  6
 17 18  1  0
 17 27  1  0
 18 19  1  0
 19 20  2  0
 19 26  1  0
 20 21  1  0
 21 22  2  0
 22 23  1  0
 23 24  1  0
 23 26  2  0
 24 25  1  0
 27 28  2  0
 27 29  1  0
 29 30  1  1
 30 31  2  0
 30 34  1  0
 31 32  1  0
 32 33  2  0
 33 34  1  0
 33 35  1  0
 35 36  2  0
 35 41  1  0
 36 37  1  0
 37 38  2  0
 38 39  1  0
 38 40  1  0
 40 41  2  0
 42 43  2  0
 42 44  1  0
 44 45  1  0
 45 46  1  0
 45 47  1  0
 45 48  1  0
M  END
$$$$
