mol44
     RDKit          3D

 25 28  0  0  1  0  0  0  0  0999 V2000
    2.0896    0.0555    0.0780 C   0  0  2  0  0  0  0  0  0  0  0  0
    2.5939    1.4466    0.4510 C   0  0  0  0  0  0  0  0  0  0  0  0
    2.7027    1.4101    1.9851 C   0  0  0  0  0  0  0  0  0  0  0  0
    2.4724   -0.0581    2.4092 C   0  0  2  0  0  0  0  0  0  0  0  0
    3.3292   -0.4382    3.4912 O   0  0  0  0  0  0  0  0  0  0  0  0
    2.9419    0.0047    4.7226 C   0  0  0  0  0  0  0  0  0  0  0  0
    1.9285    0.6497    4.9467 O   0  0  0  0  0  0  0  0  0  0  0  0
    3.9574   -0.4061    5.7637 C   0  0  0  0  0  0  0  0  0  0  0  0
    3.5461    0.0473    7.1556 C   0  0  0  0  0  0  0  0  0  0  0  0
    2.7661   -0.8592    1.1195 C   0  0  2  0  0  0  0  0  0  0  0  0
    4.2937   -1.0358    0.9295 C   0  0  0  0  0  0  0  0  0  0  0  0
    2.0774   -2.2273    1.0469 C   0  0  0  0  0  0  0  0  0  0  0  0
    2.1743   -2.8342   -0.3634 C   0  0  0  0  0  0  0  0  0  0  0  0
    1.7204   -1.8814   -1.5030 C   0  0  1  0  0  0  0  0  0  0  0  0
    2.2938   -0.4371   -1.3589 C   0  0  1  0  0  0  0  0  0  0  0  0
    1.6203    0.4891   -2.3831 C   0  0  0  0  0  0  0  0  0  0  0  0
    1.7839   -0.0250   -3.8123 C   0  0  0  0  0  0  0  0  0  0  0  0
    1.3874   -1.4751   -3.9754 C   0  0  0  0  0  0  0  0  0  0  0  0
    0.5916   -1.8397   -4.9992 C   0  0  0  0  0  0  0  0  0  0  0  0
    0.2917   -3.2628   -5.2841 C   0  0  0  0  0  0  0  0  0  0  0  0
   -0.4739   -3.5487   -6.2009 O   0  0  0  0  0  0  0  0  0  0  0  0
    1.0330   -4.3089   -4.4956 C   0  0  0  0  0  0  0  0  0  0  0  0
    1.2267   -3.8377   -3.0615 C   0  0  0  0  0  0  0  0  0  0  0  0
    1.9544   -2.4660   -2.9498 C   0  0  2  0  0  0  0  0  0  0  0  0
    3.4562   -2.6768   -3.2561 C   0  0  0  0  0  0  0  0  0  0  0  0
  1  2  1  6
  1 10  1  0
  1 15  1  0
  2  3  1  0
  3  4  1  0
  4  5  1  1
  4 10  1  0
  5  6  1  0
  6  7  2  0
  6  8  1  0
  8  9  1  0
 10 11  1  6
 10 12  1  0
 12 13  1  0
 14 13  1  1
 14 15  1  0
 14 24  1  0
 15 16  1  6
 16 17  1  0
 17 18  1  0
 18 19  2  0
 18 24  1  0
 19 20  1  0
 20 21  2  0
 20 22  1  0
 22 23  1  0
 23 24  1  0
 24 25  1  6
M  END
$$$$
