mol47
     RDKit          3D

 20 23  0  0  1  0  0  0  0  0999 V2000
    1.9994    0.0811    0.0460 C   0  0  2  0  0  0  0  0  0  0  0  0
    2.4587    1.4274   -0.5106 C   0  0  0  0  0  0  0  0  0  0  0  0
    2.5279    2.3405    0.7291 C   0  0  0  0  0  0  0  0  0  0  0  0
    2.3384    1.4199    1.9505 C   0  0  2  0  0  0  0  0  0  0  0  0
    3.1097    1.8308    3.0628 O   0  0  0  0  0  0  0  0  0  0  0  0
    2.6937    0.0157    1.4221 C   0  0  2  0  0  0  0  0  0  0  0  0
    4.2298   -0.1781    1.3598 C   0  0  0  0  0  0  0  0  0  0  0  0
    2.0663   -1.1338    2.2159 C   0  0  0  0  0  0  0  0  0  0  0  0
    2.1884   -2.4671    1.4628 C   0  0  0  0  0  0  0  0  0  0  0  0
    1.6583   -2.4135    0.0059 C   0  0  2  0  0  0  0  0  0  0  0  0
    1.8640   -3.6990   -0.7901 C   0  0  0  0  0  0  0  0  0  0  0  0
    1.9351   -4.9528   -0.1529 C   0  0  0  0  0  0  0  0  0  0  0  0
    2.1164   -6.1300   -0.8809 C   0  0  0  0  0  0  0  0  0  0  0  0
    2.2094   -6.0686   -2.2619 C   0  0  0  0  0  0  0  0  0  0  0  0
    2.4007   -7.1903   -3.0123 O   0  0  0  0  0  0  0  0  0  0  0  0
    2.1097   -4.8502   -2.9229 C   0  0  0  0  0  0  0  0  0  0  0  0
    1.9262   -3.6586   -2.1994 C   0  0  0  0  0  0  0  0  0  0  0  0
    1.8638   -2.3644   -2.9771 C   0  0  0  0  0  0  0  0  0  0  0  0
    1.5276   -1.1284   -2.1436 C   0  0  0  0  0  0  0  0  0  0  0  0
    2.2216   -1.1886   -0.7789 C   0  0  1  0  0  0  0  0  0  0  0  0
  1  2  1  6
  1  6  1  0
  1 20  1  0
  2  3  1  0
  3  4  1  0
  4  5  1  1
  4  6  1  0
  6  7  1  6
  6  8  1  0
  8  9  1  0
 10  9  1  1
 10 11  1  0
 10 20  1  0
 11 12  2  0
 11 17  1  0
 12 13  1  0
 13 14  2  0
 14 15  1  0
 14 16  1  0
 16 17  2  0
 17 18  1  0
 18 19  1  0
 20 19  1  6
M  END
$$$$
