mol41
     RDKit          3D

 34 38  0  0  1  0  0  0  0  0999 V2000
    2.1266    0.0693    0.0714 C   0  0  1  0  0  0  0  0  0  0  0  0
    2.5799   -1.2086   -1.1649 S   0  0  0  0  0  0  0  0  0  0  0  0
    2.9370   -2.4528    0.1750 C   0  0  0  0  0  0  0  0  0  0  0  0
    3.9156   -3.4904   -0.3830 C   0  0  0  0  0  0  0  0  0  0  0  0
    1.6057   -3.1193    0.5445 C   0  0  0  0  0  0  0  0  0  0  0  0
    3.5576   -1.6082    1.3066 C   0  0  1  0  0  0  0  0  0  0  0  0
    2.9613   -0.2709    1.2386 N   0  0  0  0  0  0  0  0  0  0  0  0
    3.7856    0.8106    1.0704 C   0  0  0  0  0  0  0  0  0  0  0  0
    4.9067    1.0200    1.4720 O   0  0  0  0  0  0  0  0  0  0  0  0
    2.8387    1.4422    0.0268 C   0  0  1  0  0  0  0  0  0  0  0  0
    3.4417    1.8604   -1.2666 N   0  0  0  0  0  0  0  0  0  0  0  0
    2.6499    2.3646   -2.2765 C   0  0  0  0  0  0  0  0  0  0  0  0
    1.4299    2.4843   -2.1421 O   0  0  0  0  0  0  0  0  0  0  0  0
    3.3904    2.7152   -3.5920 C   0  0  1  0  0  0  0  0  0  0  0  0
    2.4704    2.5425   -4.7378 N   0  0  0  0  0  0  0  0  0  0  0  0
    3.9690    4.1176   -3.5742 C   0  0  0  0  0  0  0  0  0  0  0  0
    5.3499    4.3141   -3.7370 C   0  0  0  0  0  0  0  0  0  0  0  0
    5.8852    5.6036   -3.7942 C   0  0  0  0  0  0  0  0  0  0  0  0
    5.0494    6.7132   -3.6929 C   0  0  0  0  0  0  0  0  0  0  0  0
    3.6798    6.5362   -3.5141 C   0  0  0  0  0  0  0  0  0  0  0  0
    3.1434    5.2485   -3.4475 C   0  0  0  0  0  0  0  0  0  0  0  0
    3.4509   -2.2353    2.7022 C   0  0  0  0  0  0  0  0  0  0  0  0
    3.9167   -3.3295    2.9894 O   0  0  0  0  0  0  0  0  0  0  0  0
    2.7902   -1.4258    3.5736 O   0  0  0  0  0  0  0  0  0  0  0  0
    3.0241   -1.7180    4.9446 C   0  0  1  0  0  0  0  0  0  0  0  0
    4.1942   -1.0090    5.4052 O   0  0  0  0  0  0  0  0  0  0  0  0
    3.8851   -0.0498    6.3242 C   0  0  0  0  0  0  0  0  0  0  0  0
    4.6546    0.7293    6.8502 O   0  0  0  0  0  0  0  0  0  0  0  0
    2.4577   -0.1558    6.5814 C   0  0  0  0  0  0  0  0  0  0  0  0
    1.9332   -1.1380    5.7669 C   0  0  0  0  0  0  0  0  0  0  0  0
    0.5851   -1.4508    5.8323 C   0  0  0  0  0  0  0  0  0  0  0  0
   -0.2153   -0.7504    6.7443 C   0  0  0  0  0  0  0  0  0  0  0  0
    0.3344    0.2451    7.5694 C   0  0  0  0  0  0  0  0  0  0  0  0
    1.6928    0.5551    7.4896 C   0  0  0  0  0  0  0  0  0  0  0  0
  1  2  1  6
  1  7  1  0
  1 10  1  0
  2  3  1  0
  3  4  1  0
  3  5  1  0
  3  6  1  0
  6  7  1  0
  6 22  1  1
  7  8  1  0
  8  9  2  0
  8 10  1  0
 10 11  1  6
 11 12  1  0
 12 13  2  0
 12 14  1  0
 14 15  1  6
 14 16  1  0
 16 17  2  0
 16 21  1  0
 17 18  1  0
 18 19  2  0
 19 20  1  0
 20 21  2  0
 22 23  2  0
 22 24  1  0
 25 24  1  6
 25 26  1  0
 25 30  1  0
 26 27  1  0
 27 28  2  0
 27 29  1  0
 29 30  2  0
 29 34  1  0
 30 31  1  0
 31 32  2  0
 32 33  1  0
 33 34  2  0
M  END
$$$$
