mol46
     RDKit          3D

 46 53  0  0  1  0  0  0  0  0999 V2000
    5.2590    5.5117   -2.9476 C   0  0  0  0  0  0  0  0  0  0  0  0
    5.2366    6.7672   -2.3127 O   0  0  0  0  0  0  0  0  0  0  0  0
    4.8694    7.8772   -3.0220 C   0  0  0  0  0  0  0  0  0  0  0  0
    4.4632    7.9213   -4.3725 C   0  0  0  0  0  0  0  0  0  0  0  0
    4.0447    9.1260   -4.9486 C   0  0  0  0  0  0  0  0  0  0  0  0
    4.1758   10.3169   -4.1228 C   0  0  0  0  0  0  0  0  0  0  0  0
    4.5437   10.2733   -2.7740 C   0  0  0  0  0  0  0  0  0  0  0  0
    4.6041   11.2740   -1.8483 O   0  0  0  0  0  0  0  0  0  0  0  0
    4.1712   12.5911   -2.1369 C   0  0  0  0  0  0  0  0  0  0  0  0
    4.8634    9.0455   -2.2406 C   0  0  0  0  0  0  0  0  0  0  0  0
    5.2109    8.9733   -0.9058 O   0  0  0  0  0  0  0  0  0  0  0  0
    3.3083    9.2581   -6.3486 C   0  0  1  0  0  0  0  0  0  0  0  0
    2.3546    8.3163   -7.2246 C   0  0  2  0  0  0  0  0  0  0  0  0
    1.6914    7.2457   -6.4301 C   0  0  2  0  0  0  0  0  0  0  0  0
    0.7186    6.6198   -7.4227 C   0  0  0  0  0  0  0  0  0  0  0  0
    1.1693    7.0070   -8.7394 O   0  0  0  0  0  0  0  0  0  0  0  0
    2.1673    7.9619   -8.6716 C   0  0  0  0  0  0  0  0  0  0  0  0
    2.5422    8.6074   -9.6364 O   0  0  0  0  0  0  0  0  0  0  0  0
    1.1093    7.9069   -5.1456 C   0  0  2  0  0  0  0  0  0  0  0  0
    0.1881    7.0004   -4.4959 O   0  0  0  0  0  0  0  0  0  0  0  0
    0.8658    5.7503   -4.0286 C   0  0  2  0  0  0  0  0  0  0  0  0
    1.1954    4.8882   -5.1302 O   0  0  0  0  0  0  0  0  0  0  0  0
    1.8257    3.6610   -4.7492 C   0  0  2  0  0  0  0  0  0  0  0  0
    2.2852    2.8614   -5.9731 C   0  0  0  0  0  0  0  0  0  0  0  0
    2.8018    1.5928   -5.5873 O   0  0  0  0  0  0  0  0  0  0  0  0
    1.8410    0.8303   -4.8491 C   0  0  2  0  0  0  0  0  0  0  0  0
    1.4614    1.5271   -3.6576 O   0  0  0  0  0  0  0  0  0  0  0  0
    0.8480    2.7851   -3.9785 C   0  0  1  0  0  0  0  0  0  0  0  0
    0.4183    3.5487   -2.7215 C   0  0  2  0  0  0  0  0  0  0  0  0
   -0.6222    2.8060   -2.0604 O   0  0  0  0  0  0  0  0  0  0  0  0
   -0.0623    4.9945   -3.0414 C   0  0  1  0  0  0  0  0  0  0  0  0
   -0.1660    5.7206   -1.8086 O   0  0  0  0  0  0  0  0  0  0  0  0
    2.5396   -0.4464   -4.4699 C   0  0  0  0  0  0  0  0  0  0  0  0
    3.2676   -0.7579   -3.3345 C   0  0  0  0  0  0  0  0  0  0  0  0
    3.8891   -2.0404   -3.4105 C   0  0  0  0  0  0  0  0  0  0  0  0
    3.5849   -2.6926   -4.5836 C   0  0  0  0  0  0  0  0  0  0  0  0
    2.5382   -1.7708   -5.5730 S   0  0  0  0  0  0  0  0  0  0  0  0
    0.9169    9.5057   -5.4319 C   0  0  0  0  0  0  0  0  0  0  0  0
    2.1283   10.1760   -5.9478 C   0  0  0  0  0  0  0  0  0  0  0  0
    2.2039   11.4624   -6.5112 C   0  0  0  0  0  0  0  0  0  0  0  0
    1.0051   12.0524   -6.7233 C   0  0  0  0  0  0  0  0  0  0  0  0
    0.8872   13.1668   -7.4946 O   0  0  0  0  0  0  0  0  0  0  0  0
   -0.5273   13.1254   -7.7241 C   0  0  0  0  0  0  0  0  0  0  0  0
   -1.2215   12.1817   -6.8651 O   0  0  0  0  0  0  0  0  0  0  0  0
   -0.1687   11.4600   -6.3422 C   0  0  0  0  0  0  0  0  0  0  0  0
   -0.2697   10.2146   -5.6579 C   0  0  0  0  0  0  0  0  0  0  0  0
  1  2  1  0
  2  3  1  0
  3  4  2  0
  3 10  1  0
  4  5  1  0
  5  6  2  0
 12  5  1  1
  6  7  1  0
  7  8  1  0
  7 10  2  0
  8  9  1  0
 10 11  1  0
 12 13  1  0
 12 39  1  0
 13 14  1  0
 13 17  1  6
 14 15  1  6
 14 19  1  0
 15 16  1  0
 16 17  1  0
 17 18  2  0
 19 38  1  0
 19 20  1  6
 21 22  1  0
 21 31  1  0
 21 20  1  6
 22 23  1  0
 23 24  1  6
 23 28  1  0
 24 25  1  0
 25 26  1  0
 26 27  1  0
 26 33  1  1
 28 27  1  1
 28 29  1  0
 29 30  1  6
 29 31  1  0
 31 32  1  1
 33 34  2  0
 33 37  1  0
 34 35  1  0
 35 36  2  0
 36 37  1  0
 38 39  2  0
 38 46  1  0
 39 40  1  0
 40 41  2  0
 41 42  1  0
 41 45  1  0
 42 43  1  0
 43 44  1  0
 44 45  1  0
 45 46  2  0
M  END
$$$$
