mol42
     RDKit          3D

 30 31  0  0  0  0  0  0  0  0999 V2000
    7.7734    0.6512   -2.8493 C   0  0  0  0  0  0  0  0  0  0  0  0
    6.7848    0.7671   -1.7926 N   0  0  0  0  0  0  0  0  0  0  0  0
    5.5067    1.3898   -2.1004 C   0  0  0  0  0  0  0  0  0  0  0  0
    7.1309    0.2820   -0.5301 C   0  0  0  0  0  0  0  0  0  0  0  0
    8.2272   -0.2376   -0.3135 O   0  0  0  0  0  0  0  0  0  0  0  0
    6.0735    0.4255    0.5690 C   0  0  0  0  0  0  0  0  0  0  0  0
    6.5146   -0.1068    1.8199 O   0  0  0  0  0  0  0  0  0  0  0  0
    6.5815    0.7854    2.8433 C   0  0  0  0  0  0  0  0  0  0  0  0
    6.2614    1.9671    2.7731 O   0  0  0  0  0  0  0  0  0  0  0  0
    7.0934    0.1291    4.1030 C   0  0  0  0  0  0  0  0  0  0  0  0
    8.5912    0.2199    4.2525 C   0  0  0  0  0  0  0  0  0  0  0  0
    9.1976    1.4791    4.3204 C   0  0  0  0  0  0  0  0  0  0  0  0
   10.5843    1.5992    4.4309 C   0  0  0  0  0  0  0  0  0  0  0  0
   11.3748    0.4591    4.4959 C   0  0  0  0  0  0  0  0  0  0  0  0
   12.7893    0.5070    4.5633 O   0  0  0  0  0  0  0  0  0  0  0  0
   13.4705    1.5748    5.1369 C   0  0  0  0  0  0  0  0  0  0  0  0
   12.9822    2.5713    5.6657 O   0  0  0  0  0  0  0  0  0  0  0  0
   14.9361    1.3468    5.1099 C   0  0  0  0  0  0  0  0  0  0  0  0
   15.7885    2.3274    5.6342 C   0  0  0  0  0  0  0  0  0  0  0  0
   17.1628    2.0706    5.7577 C   0  0  0  0  0  0  0  0  0  0  0  0
   17.7349    0.8877    5.2820 C   0  0  0  0  0  0  0  0  0  0  0  0
   19.1024    0.5733    5.3880 N   0  0  0  0  0  0  0  0  0  0  0  0
   20.1516    1.3675    5.7326 C   0  0  0  0  0  0  0  0  0  0  0  0
   21.2387    0.6962    6.1577 N   0  0  0  0  0  0  0  0  0  0  0  0
   20.2459    2.6502    5.7027 N   0  0  0  0  0  0  0  0  0  0  0  0
   16.8583   -0.0860    4.7703 C   0  0  0  0  0  0  0  0  0  0  0  0
   15.4800    0.1369    4.6857 C   0  0  0  0  0  0  0  0  0  0  0  0
   10.7886   -0.8076    4.4412 C   0  0  0  0  0  0  0  0  0  0  0  0
    9.3963   -0.9268    4.3216 C   0  0  0  0  0  0  0  0  0  0  0  0
   19.3908    3.0240    5.2887 H   0  0  0  0  0  0  0  0  0  0  0  0
  1  2  1  0
  2  3  1  0
  2  4  1  0
  4  5  2  0
  4  6  1  0
  6  7  1  0
  7  8  1  0
  8  9  2  0
  8 10  1  0
 10 11  1  0
 11 12  2  0
 11 29  1  0
 12 13  1  0
 13 14  2  0
 14 15  1  0
 14 28  1  0
 15 16  1  0
 16 17  2  0
 16 18  1  0
 18 19  2  0
 18 27  1  0
 19 20  1  0
 20 21  2  0
 21 22  1  0
 21 26  1  0
 22 23  1  0
 23 24  1  0
 23 25  2  0
 25 30  1  0
 26 27  2  0
 28 29  2  0
M  END
$$$$
