mol4
     RDKit          3D

 24 27  0  0  1  0  0  0  0  0999 V2000
    1.2911    0.3024    0.1114 C   0  0  0  0  0  0  0  0  0  0  0  0
    2.7451   -0.1495   -0.0697 C   0  0  2  0  0  0  0  0  0  0  0  0
    3.1597   -0.1980   -1.5604 C   0  0  0  0  0  0  0  0  0  0  0  0
    2.2891   -1.0566   -2.4955 C   0  0  0  0  0  0  0  0  0  0  0  0
    2.2220   -2.5390   -2.1281 C   0  0  0  0  0  0  0  0  0  0  0  0
    1.6108   -2.6807   -0.8132 N   0  0  0  0  0  0  0  0  0  0  0  0
    0.3834   -3.4507   -0.6235 C   0  0  0  0  0  0  0  0  0  0  0  0
   -0.7357   -3.0720   -1.5919 C   0  0  0  0  0  0  0  0  0  0  0  0
   -1.5514   -2.0444   -1.2961 C   0  0  0  0  0  0  0  0  0  0  0  0
   -2.7855   -1.9161   -2.1001 C   0  0  0  0  0  0  0  0  0  0  0  0
   -3.4166   -0.8614   -2.1397 O   0  0  0  0  0  0  0  0  0  0  0  0
   -3.1306   -3.0985   -2.6764 N   0  0  0  0  0  0  0  0  0  0  0  0
   -4.2090   -3.1114   -3.5772 N   0  0  0  0  0  0  0  0  0  0  0  0
   -3.6239   -3.6603   -4.6925 C   0  0  0  0  0  0  0  0  0  0  0  0
   -4.3564   -3.4906   -5.8186 N   0  0  0  0  0  0  0  0  0  0  0  0
   -2.4265   -4.1405   -4.5542 N   0  0  0  0  0  0  0  0  0  0  0  0
   -2.0658   -3.7478   -3.2822 C   0  0  0  0  0  0  0  0  0  0  0  0
   -0.8928   -3.8037   -2.7547 N   0  0  0  0  0  0  0  0  0  0  0  0
    2.5535   -2.6778    0.2236 C   0  0  0  0  0  0  0  0  0  0  0  0
    3.0389   -3.8633    0.8012 C   0  0  0  0  0  0  0  0  0  0  0  0
    4.0257   -3.8291    1.7919 C   0  0  0  0  0  0  0  0  0  0  0  0
    4.5263   -2.6063    2.2389 C   0  0  0  0  0  0  0  0  0  0  0  0
    4.0613   -1.4268    1.6646 C   0  0  0  0  0  0  0  0  0  0  0  0
    3.1019   -1.4461    0.6361 C   0  0  0  0  0  0  0  0  0  0  0  0
  2  1  1  6
  2  3  1  0
  2 24  1  0
  3  4  1  0
  4  5  1  0
  5  6  1  0
  6  7  1  0
  6 19  1  0
  7  8  1  0
  8  9  2  0
  8 18  1  0
  9 10  1  0
 10 11  2  0
 10 12  1  0
 12 13  1  0
 12 17  1  0
 13 14  1  0
 14 15  1  0
 14 16  2  0
 16 17  1  0
 17 18  2  0
 19 20  2  0
 19 24  1  0
 20 21  1  0
 21 22  2  0
 22 23  1  0
 23 24  2  0
M  END
$$$$
