mol48
     RDKit          3D

 45 49  0  0  1  0  0  0  0  0999 V2000
    3.7967   -1.1382   -0.0822 C   0  0  1  0  0  0  0  0  0  0  0  0
    4.8771   -2.2609    1.2834 C   0  0  0  0  0  0  0  0  0  0  0  0
    6.4116   -1.5843    1.9457 O   0  0  0  0  0  0  0  0  0  0  0  0
    6.7770   -0.2606    2.5243 C   0  0  0  0  0  0  0  0  0  0  0  0
    7.2279   -0.1369    3.6587 O   0  0  0  0  0  0  0  0  0  0  0  0
    6.6834    1.0457    1.6236 C   0  0  0  0  0  0  0  0  0  0  0  0
    5.4261    1.6905    0.9664 C   0  0  0  0  0  0  0  0  0  0  0  0
    5.7628    2.1407   -0.3925 C   0  0  0  0  0  0  0  0  0  0  0  0
    4.8024    2.5903   -1.2800 O   0  0  0  0  0  0  0  0  0  0  0  0
    6.9894    1.7801   -1.0584 C   0  0  0  0  0  0  0  0  0  0  0  0
    7.0328    1.6176   -2.4361 O   0  0  0  0  0  0  0  0  0  0  0  0
    8.0557    1.1853   -0.3873 C   0  0  0  0  0  0  0  0  0  0  0  0
    8.9193    0.3499   -1.0762 O   0  0  0  0  0  0  0  0  0  0  0  0
    7.9829    0.9919    0.9826 C   0  0  0  0  0  0  0  0  0  0  0  0
    3.6667    1.5547    1.3836 C   0  0  0  0  0  0  0  0  0  0  0  0
    2.5329    0.3227    1.6842 C   0  0  0  0  0  0  0  0  0  0  0  0
    1.2566    0.7106    2.1403 C   0  0  0  0  0  0  0  0  0  0  0  0
    0.9466    2.0473    2.3234 C   0  0  0  0  0  0  0  0  0  0  0  0
   -0.2635    2.3965    2.8557 O   0  0  0  0  0  0  0  0  0  0  0  0
    1.8395    3.0651    2.0029 C   0  0  0  0  0  0  0  0  0  0  0  0
    1.4420    4.3727    2.1540 O   0  0  0  0  0  0  0  0  0  0  0  0
    3.1441    2.8451    1.5521 C   0  0  0  0  0  0  0  0  0  0  0  0
    3.9083    3.9559    1.2995 O   0  0  0  0  0  0  0  0  0  0  0  0
    2.3381   -1.5440    1.6941 C   0  0  0  0  0  0  0  0  0  0  0  0
    1.6491   -1.9428    2.6296 O   0  0  0  0  0  0  0  0  0  0  0  0
    2.8163   -2.7511    0.7611 O   0  0  0  0  0  0  0  0  0  0  0  0
    3.8302   -2.9057   -0.7218 C   0  0  2  0  0  0  0  0  0  0  0  0
    5.4936   -2.1667   -0.8797 C   0  0  1  0  0  0  0  0  0  0  0  0
    5.7556   -1.6905   -2.2307 O   0  0  0  0  0  0  0  0  0  0  0  0
    5.4742   -0.6818    0.1348 C   0  0  2  0  0  0  0  0  0  0  0  0
    4.7339   -0.3311    1.8508 O   0  0  0  0  0  0  0  0  0  0  0  0
    4.4523   -0.6279    3.3444 C   0  0  0  0  0  0  0  0  0  0  0  0
    4.7013   -1.7210    3.8583 O   0  0  0  0  0  0  0  0  0  0  0  0
    3.7354    0.3361    4.3487 C   0  0  0  0  0  0  0  0  0  0  0  0
    3.9952    1.7207    4.5755 C   0  0  0  0  0  0  0  0  0  0  0  0
    3.2316    2.4572    5.5024 C   0  0  0  0  0  0  0  0  0  0  0  0
    3.3821    3.8097    5.7094 O   0  0  0  0  0  0  0  0  0  0  0  0
    2.2437    1.8643    6.2662 C   0  0  0  0  0  0  0  0  0  0  0  0
    1.4809    2.5770    7.1486 O   0  0  0  0  0  0  0  0  0  0  0  0
    2.0232    0.5123    6.1244 C   0  0  0  0  0  0  0  0  0  0  0  0
    1.0599   -0.0713    6.9015 O   0  0  0  0  0  0  0  0  0  0  0  0
    2.7479   -0.2331    5.2020 C   0  0  0  0  0  0  0  0  0  0  0  0
    4.5232   -0.1002   -0.6377 O   0  0  0  0  0  0  0  0  0  0  0  0
    3.0508   -1.8317   -1.2656 C   0  0  2  0  0  0  0  0  0  0  0  0
    3.2726   -1.1883   -2.5082 O   0  0  0  0  0  0  0  0  0  0  0  0
  1  2  1  6
  1 43  1  0
  1 44  1  0
  2  3  1  0
  3  4  1  0
  4  6  1  0
  4  5  2  0
  6  7  2  0
  6 14  1  0
  7  8  1  0
  7 15  1  0
  8 10  2  0
  8  9  1  0
 10 12  1  0
 10 11  1  0
 12 14  2  0
 12 13  1  0
 15 16  2  0
 15 22  1  0
 16 17  1  0
 16 24  1  0
 17 18  2  0
 18 20  1  0
 18 19  1  0
 20 22  2  0
 20 21  1  0
 22 23  1  0
 24 26  1  0
 24 25  2  0
 27 26  1  1
 27 28  1  0
 27 44  1  0
 28 30  1  0
 28 29  1  6
 30 43  1  0
 30 31  1  1
 31 32  1  0
 32 33  2  0
 32 34  1  0
 34 35  2  0
 34 42  1  0
 35 36  1  0
 36 37  1  0
 36 38  2  0
 38 39  1  0
 38 40  1  0
 40 41  1  0
 40 42  2  0
 44 45  1  6
M  END
$$$$
