mol49
     RDKit          3D

 42 48  0  0  1  0  0  0  0  0999 V2000
    3.6596   -1.6654    1.1257 O   0  0  0  0  0  0  0  0  0  0  0  0
    2.5976   -0.7324    0.9256 C   0  0  2  0  0  0  0  0  0  0  0  0
    1.7142   -1.1772   -0.2397 C   0  0  0  0  0  0  0  0  0  0  0  0
    0.6327   -0.1618   -0.4620 C   0  0  0  0  0  0  0  0  0  0  0  0
    0.8038    1.1466    0.0119 C   0  0  0  0  0  0  0  0  0  0  0  0
    1.9370    1.6220    0.6084 O   0  0  0  0  0  0  0  0  0  0  0  0
    3.0573    0.7355    0.7176 C   0  0  2  0  0  0  0  0  0  0  0  0
    4.0445    0.8517   -0.4410 C   0  0  0  0  0  0  0  0  0  0  0  0
    3.6553    1.1692   -1.7543 C   0  0  0  0  0  0  0  0  0  0  0  0
    4.4632    0.8092   -2.8388 C   0  0  0  0  0  0  0  0  0  0  0  0
    5.6604    0.1642   -2.5920 C   0  0  0  0  0  0  0  0  0  0  0  0
    6.3853   -0.4117   -3.6002 O   0  0  0  0  0  0  0  0  0  0  0  0
    6.1391    0.0168   -1.2967 C   0  0  0  0  0  0  0  0  0  0  0  0
    7.3315   -0.5941   -1.0520 O   0  0  0  0  0  0  0  0  0  0  0  0
    5.3535    0.3891   -0.2188 C   0  0  0  0  0  0  0  0  0  0  0  0
   -0.2550    2.0463   -0.0726 C   0  0  0  0  0  0  0  0  0  0  0  0
   -1.3420    1.7517   -0.8841 C   0  0  0  0  0  0  0  0  0  0  0  0
   -2.2912    2.7174   -1.0504 O   0  0  0  0  0  0  0  0  0  0  0  0
   -2.7997    3.3045    0.1989 C   0  0  2  0  0  0  0  0  0  0  0  0
   -2.7543    4.7518    0.1594 O   0  0  0  0  0  0  0  0  0  0  0  0
   -1.5413    5.2998    0.4944 C   0  0  0  0  0  0  0  0  0  0  0  0
   -0.3641    4.5478    0.6160 C   0  0  0  0  0  0  0  0  0  0  0  0
   -0.4997    3.0826    0.9910 C   0  0  1  0  0  0  0  0  0  0  0  0
   -1.9747    2.8192    1.4367 C   0  0  1  0  0  0  0  0  0  0  0  0
   -2.2914    3.4384    2.6957 O   0  0  0  0  0  0  0  0  0  0  0  0
    0.8330    5.2136    0.8855 C   0  0  0  0  0  0  0  0  0  0  0  0
    2.0435    4.6133    0.7348 O   0  0  0  0  0  0  0  0  0  0  0  0
    0.8038    6.4844    1.4345 C   0  0  0  0  0  0  0  0  0  0  0  0
   -0.4207    7.1280    1.5548 C   0  0  0  0  0  0  0  0  0  0  0  0
   -0.5397    8.2439    2.3279 O   0  0  0  0  0  0  0  0  0  0  0  0
   -1.5688    6.6062    0.9716 C   0  0  0  0  0  0  0  0  0  0  0  0
   -4.2642    2.8927    0.0635 C   0  0  0  0  0  0  0  0  0  0  0  0
   -4.9134    3.2566   -1.1481 C   0  0  0  0  0  0  0  0  0  0  0  0
   -6.0193    2.5516   -1.6106 C   0  0  0  0  0  0  0  0  0  0  0  0
   -6.5354    1.5380   -0.8231 C   0  0  0  0  0  0  0  0  0  0  0  0
   -7.4876    0.6930   -1.3127 O   0  0  0  0  0  0  0  0  0  0  0  0
   -6.0277    1.3060    0.4569 C   0  0  0  0  0  0  0  0  0  0  0  0
   -6.6112    0.3572    1.2449 O   0  0  0  0  0  0  0  0  0  0  0  0
   -4.8881    1.9660    0.9069 C   0  0  0  0  0  0  0  0  0  0  0  0
   -1.5186    0.4778   -1.4080 C   0  0  0  0  0  0  0  0  0  0  0  0
   -0.5575   -0.4920   -1.1207 C   0  0  0  0  0  0  0  0  0  0  0  0
   -0.8489   -1.7861   -1.4466 O   0  0  0  0  0  0  0  0  0  0  0  0
  2  1  1  6
  2  3  1  0
  2  7  1  0
  3  4  1  0
  4  5  2  0
  4 41  1  0
  5  6  1  0
  5 16  1  0
  6  7  1  0
  7  8  1  6
  8  9  2  0
  8 15  1  0
  9 10  1  0
 10 11  2  0
 11 12  1  0
 11 13  1  0
 13 14  1  0
 13 15  2  0
 16 17  2  0
 23 16  1  6
 17 18  1  0
 17 40  1  0
 18 19  1  0
 19 20  1  0
 19 24  1  0
 19 32  1  1
 20 21  1  0
 21 22  2  0
 21 31  1  0
 22 23  1  0
 22 26  1  0
 23 24  1  0
 24 25  1  1
 26 27  1  0
 26 28  2  0
 28 29  1  0
 29 30  1  0
 29 31  2  0
 32 33  2  0
 32 39  1  0
 33 34  1  0
 34 35  2  0
 35 36  1  0
 35 37  1  0
 37 38  1  0
 37 39  2  0
 40 41  2  0
 41 42  1  0
M  END
$$$$
