mol45
     RDKit          3D

 38 45  0  0  0  0  0  0  0  0999 V2000
    0.5427   -1.0106    0.5190 C   0  0  0  0  0  0  0  0  0  0  0  0
    1.9658   -1.5457    0.5440 C   0  0  0  0  0  0  0  0  0  0  0  0
    2.5942   -1.9744    1.7875 C   0  0  0  0  0  0  0  0  0  0  0  0
    2.0727   -2.7531    2.9475 C   0  0  0  0  0  0  0  0  0  0  0  0
    0.9489   -3.6537    2.9791 C   0  0  0  0  0  0  0  0  0  0  0  0
    0.1486   -4.0702    1.7679 C   0  0  0  0  0  0  0  0  0  0  0  0
    0.6124   -4.3745    4.1579 C   0  0  0  0  0  0  0  0  0  0  0  0
    1.2834   -4.1721    5.3562 C   0  0  0  0  0  0  0  0  0  0  0  0
    0.9621   -4.9279    6.4438 O   0  0  0  0  0  0  0  0  0  0  0  0
    2.3266   -3.2648    5.3978 C   0  0  0  0  0  0  0  0  0  0  0  0
    2.8021   -2.6987    4.1827 C   0  0  0  0  0  0  0  0  0  0  0  0
    4.0965   -2.1543    4.2032 C   0  0  0  0  0  0  0  0  0  0  0  0
    4.6508   -1.5480    3.0949 C   0  0  0  0  0  0  0  0  0  0  0  0
    3.9027   -1.4566    1.9060 C   0  0  0  0  0  0  0  0  0  0  0  0
    4.4865   -0.7654    0.8382 C   0  0  0  0  0  0  0  0  0  0  0  0
    4.0033   -0.7866   -0.4540 C   0  0  0  0  0  0  0  0  0  0  0  0
    4.6845   -0.3040   -1.5264 O   0  0  0  0  0  0  0  0  0  0  0  0
    2.6995   -1.1672   -0.6062 C   0  0  0  0  0  0  0  0  0  0  0  0
    5.3344    0.3589    1.2369 C   0  0  0  0  0  0  0  0  0  0  0  0
    5.1141    1.4652    0.7693 O   0  0  0  0  0  0  0  0  0  0  0  0
    6.2584    0.1124    2.3501 C   0  0  0  0  0  0  0  0  0  0  0  0
    5.9173   -0.8901    3.2605 C   0  0  0  0  0  0  0  0  0  0  0  0
    6.7175   -1.0946    4.4081 C   0  0  0  0  0  0  0  0  0  0  0  0
    7.8473   -0.2489    4.5658 C   0  0  0  0  0  0  0  0  0  0  0  0
    8.6890   -0.3162    5.6442 O   0  0  0  0  0  0  0  0  0  0  0  0
    8.1146    0.8040    3.6924 C   0  0  0  0  0  0  0  0  0  0  0  0
    7.3292    0.9765    2.5703 C   0  0  0  0  0  0  0  0  0  0  0  0
    7.5991    1.9785    1.6930 O   0  0  0  0  0  0  0  0  0  0  0  0
    6.2399   -1.9841    5.4081 C   0  0  0  0  0  0  0  0  0  0  0  0
    4.8743   -2.1634    5.3770 C   0  0  0  0  0  0  0  0  0  0  0  0
    4.2316   -2.0550    6.5849 C   0  0  0  0  0  0  0  0  0  0  0  0
    4.9350   -1.4451    7.6366 C   0  0  0  0  0  0  0  0  0  0  0  0
    4.7046   -0.0655    7.8202 O   0  0  0  0  0  0  0  0  0  0  0  0
    6.2796   -1.7413    7.7614 C   0  0  0  0  0  0  0  0  0  0  0  0
    6.8330   -2.3127    6.6592 C   0  0  0  0  0  0  0  0  0  0  0  0
    7.0449   -3.7066    6.8366 O   0  0  0  0  0  0  0  0  0  0  0  0
    3.0111   -2.8816    6.6952 C   0  0  0  0  0  0  0  0  0  0  0  0
    2.6826   -3.2708    7.8082 O   0  0  0  0  0  0  0  0  0  0  0  0
  1  2  1  0
  2  3  2  0
  2 18  1  0
  3  4  1  0
  3 14  1  0
  4  5  2  0
  4 11  1  0
  5  6  1  0
  5  7  1  0
  7  8  2  0
  8  9  1  0
  8 10  1  0
 10 11  2  0
 10 37  1  0
 11 12  1  0
 12 13  2  0
 12 30  1  0
 13 14  1  0
 13 22  1  0
 14 15  2  0
 15 16  1  0
 15 19  1  0
 16 17  1  0
 16 18  2  0
 19 20  2  0
 19 21  1  0
 21 22  2  0
 21 27  1  0
 22 23  1  0
 23 24  2  0
 23 29  1  0
 24 25  1  0
 24 26  1  0
 26 27  2  0
 27 28  1  0
 29 30  2  0
 29 35  1  0
 30 31  1  0
 31 32  2  0
 31 37  1  0
 32 33  1  0
 32 34  1  0
 34 35  2  0
 35 36  1  0
 37 38  2  0
M  END
$$$$
