mol40
     RDKit          3D

 35 35  0  0  0  0  0  0  0  0999 V2000
    2.6878   -0.4102   -1.6473 C   0  0  0  0  0  0  0  0  0  0  0  0
    4.2575    0.3368   -1.2887 S   0  0  0  0  0  0  0  0  0  0  0  0
    3.8759    0.9177    0.1617 O   0  0  0  0  0  0  0  0  0  0  0  0
    5.2348   -0.7035   -1.0935 O   0  0  0  0  0  0  0  0  0  0  0  0
    4.4718    1.4544   -2.1879 O   0  0  0  0  0  0  0  0  0  0  0  0
    6.1569   -9.8206    0.8395 C   0  0  0  0  0  0  0  0  0  0  0  0
    6.2605   -8.4813    1.3986 N   0  0  0  0  0  0  0  0  0  0  0  0
    7.5889   -8.0498    1.8122 C   0  0  0  0  0  0  0  0  0  0  0  0
    5.0527   -7.8485    1.6492 C   0  0  0  0  0  0  0  0  0  0  0  0
    3.9934   -8.4369    1.3986 O   0  0  0  0  0  0  0  0  0  0  0  0
    4.9292   -6.4515    2.2900 C   0  0  0  0  0  0  0  0  0  0  0  0
    5.7259   -5.3331    1.9327 O   0  0  0  0  0  0  0  0  0  0  0  0
    6.5955   -4.9362    2.8993 C   0  0  0  0  0  0  0  0  0  0  0  0
    6.9222   -5.6253    3.8603 O   0  0  0  0  0  0  0  0  0  0  0  0
    7.0443   -3.5050    2.7066 C   0  0  0  0  0  0  0  0  0  0  0  0
    8.5424   -3.3803    2.5979 C   0  0  0  0  0  0  0  0  0  0  0  0
    9.1450   -3.3243    1.3350 C   0  0  0  0  0  0  0  0  0  0  0  0
   10.5341   -3.2399    1.2101 C   0  0  0  0  0  0  0  0  0  0  0  0
   11.3317   -3.1908    2.3552 C   0  0  0  0  0  0  0  0  0  0  0  0
   12.7439   -3.1490    2.3248 O   0  0  0  0  0  0  0  0  0  0  0  0
   13.4389   -2.5911    1.2512 C   0  0  0  0  0  0  0  0  0  0  0  0
   12.9763   -2.0141    0.2796 O   0  0  0  0  0  0  0  0  0  0  0  0
   14.8851   -2.8709    1.4089 C   0  0  0  0  0  0  0  0  0  0  0  0
   15.5285   -2.8753    2.6412 C   0  0  0  0  0  0  0  0  0  0  0  0
   16.9097   -3.1105    2.7121 C   0  0  0  0  0  0  0  0  0  0  0  0
   17.6679   -3.3449    1.5544 C   0  0  0  0  0  0  0  0  0  0  0  0
   19.0391   -3.6258    1.6644 N   0  0  0  0  0  0  0  0  0  0  0  0
   19.8067   -4.3631    0.8266 C   0  0  0  0  0  0  0  0  0  0  0  0
   21.1012   -3.9769    0.7975 N   0  0  0  0  0  0  0  0  0  0  0  0
   19.4553   -5.3688    0.1060 N   0  0  0  0  0  0  0  0  0  0  0  0
   17.0050   -3.3497    0.3210 C   0  0  0  0  0  0  0  0  0  0  0  0
   15.6327   -3.0917    0.2376 C   0  0  0  0  0  0  0  0  0  0  0  0
   10.7479   -3.2692    3.6189 C   0  0  0  0  0  0  0  0  0  0  0  0
    9.3572   -3.3626    3.7414 C   0  0  0  0  0  0  0  0  0  0  0  0
   18.4677   -5.5641    0.2977 H   0  0  0  0  0  0  0  0  0  0  0  0
  1  2  1  0
  2  3  1  0
  2  4  2  0
  2  5  2  0
  6  7  1  0
  7  8  1  0
  7  9  1  0
  9 10  2  0
  9 11  1  0
 11 12  1  0
 12 13  1  0
 13 14  2  0
 13 15  1  0
 15 16  1  0
 16 17  2  0
 16 34  1  0
 17 18  1  0
 18 19  2  0
 19 20  1  0
 19 33  1  0
 20 21  1  0
 21 22  2  0
 21 23  1  0
 23 24  2  0
 23 32  1  0
 24 25  1  0
 25 26  2  0
 26 27  1  0
 26 31  1  0
 27 28  1  0
 28 29  1  0
 28 30  2  0
 30 35  1  0
 31 32  2  0
 33 34  2  0
M  END
$$$$
