mol43
     RDKit          3D

 33 36  0  0  0  0  0  0  0  0999 V2000
   -2.3531   -0.0314    0.0235 C   0  0  0  0  0  0  0  0  0  0  0  0
   -0.8571    0.0193    0.0509 C   0  0  0  0  0  0  0  0  0  0  0  0
   -0.2727    1.2272    0.1420 N   0  0  0  0  0  0  0  0  0  0  0  0
    1.0664    1.2403    0.1398 C   0  0  0  0  0  0  0  0  0  0  0  0
    1.6846    2.4889    0.2878 N   0  0  0  0  0  0  0  0  0  0  0  0
    2.9200    2.7031    0.7977 C   0  0  0  0  0  0  0  0  0  0  0  0
    3.8630    1.8007    0.9720 N   0  0  0  0  0  0  0  0  0  0  0  0
    4.9754    2.3478    1.5655 C   0  0  0  0  0  0  0  0  0  0  0  0
    4.8859    3.6892    1.8527 C   0  0  0  0  0  0  0  0  0  0  0  0
    3.3666    4.2831    1.3275 S   0  0  0  0  0  0  0  0  0  0  0  0
    5.8972    4.5070    2.4874 C   0  0  0  0  0  0  0  0  0  0  0  0
    7.0021    4.0558    2.7738 O   0  0  0  0  0  0  0  0  0  0  0  0
    5.4731    5.7898    2.8064 N   0  0  0  0  0  0  0  0  0  0  0  0
    6.2624    6.7142    3.5182 C   0  0  0  0  0  0  0  0  0  0  0  0
    5.6987    7.3106    4.6633 C   0  0  0  0  0  0  0  0  0  0  0  0
    4.0996    6.8944    5.1882 Cl  0  0  0  0  0  0  0  0  0  0  0  0
    6.4245    8.2228    5.4244 C   0  0  0  0  0  0  0  0  0  0  0  0
    7.7154    8.5698    5.0330 C   0  0  0  0  0  0  0  0  0  0  0  0
    8.2641    8.0243    3.8712 C   0  0  0  0  0  0  0  0  0  0  0  0
    7.5417    7.1100    3.0846 C   0  0  0  0  0  0  0  0  0  0  0  0
    8.1344    6.6713    1.7717 C   0  0  0  0  0  0  0  0  0  0  0  0
    1.7893    0.0745   -0.0032 C   0  0  0  0  0  0  0  0  0  0  0  0
    1.1373   -1.1364   -0.0442 C   0  0  0  0  0  0  0  0  0  0  0  0
   -0.2045   -1.1573   -0.0195 N   0  0  0  0  0  0  0  0  0  0  0  0
    1.8439   -2.3180   -0.1964 N   0  0  0  0  0  0  0  0  0  0  0  0
    3.2267   -2.4738    0.2854 C   0  0  0  0  0  0  0  0  0  0  0  0
    3.9686   -3.5145   -0.5922 C   0  0  0  0  0  0  0  0  0  0  0  0
    3.2876   -4.8299   -0.7312 N   0  0  0  0  0  0  0  0  0  0  0  0
    3.3904   -5.5884    0.5340 C   0  0  0  0  0  0  0  0  0  0  0  0
    2.8072   -7.0062    0.4394 C   0  0  0  0  0  0  0  0  0  0  0  0
    3.3759   -7.7058   -0.6631 O   0  0  0  0  0  0  0  0  0  0  0  0
    1.8845   -4.5728   -1.1521 C   0  0  0  0  0  0  0  0  0  0  0  0
    1.0910   -3.5727   -0.2766 C   0  0  0  0  0  0  0  0  0  0  0  0
  1  2  1  0
  2  3  2  0
  2 24  1  0
  3  4  1  0
  4  5  1  0
  4 22  2  0
  5  6  1  0
  6  7  2  0
  6 10  1  0
  7  8  1  0
  8  9  2  0
  9 10  1  0
  9 11  1  0
 11 12  2  0
 11 13  1  0
 13 14  1  0
 14 15  2  0
 14 20  1  0
 15 16  1  0
 15 17  1  0
 17 18  2  0
 18 19  1  0
 19 20  2  0
 20 21  1  0
 22 23  1  0
 23 24  2  0
 23 25  1  0
 25 26  1  0
 25 33  1  0
 26 27  1  0
 27 28  1  0
 28 29  1  0
 28 32  1  0
 29 30  1  0
 30 31  1  0
 32 33  1  0
M  END
$$$$
