mol53
     RDKit          3D

 41 43  0  0  1  0  0  0  0  0999 V2000
    5.8339    4.6307   -2.7693 C   0  0  0  0  0  0  0  0  0  0  0  0
    6.2306    4.5676   -1.3961 O   0  0  0  0  0  0  0  0  0  0  0  0
    5.2024    4.3702   -0.5202 C   0  0  0  0  0  0  0  0  0  0  0  0
    4.0325    4.1911   -0.8443 O   0  0  0  0  0  0  0  0  0  0  0  0
    5.7141    4.2745    0.9356 C   0  0  2  0  0  0  0  0  0  0  0  0
    4.7376    4.8631    1.9602 C   0  0  0  0  0  0  0  0  0  0  0  0
    4.6924    6.3882    2.0645 C   0  0  2  0  0  0  0  0  0  0  0  0
    3.6963    6.8152    3.1591 C   0  0  0  0  0  0  0  0  0  0  0  0
    2.3745    6.9544    2.4266 C   0  0  0  0  0  0  0  0  0  0  0  0
    2.7714    7.3461    1.1104 N   0  0  0  0  0  0  0  0  0  0  0  0
    4.0869    7.0404    0.8394 C   0  0  0  0  0  0  0  0  0  0  0  0
    4.6524    7.2282   -0.2232 O   0  0  0  0  0  0  0  0  0  0  0  0
    7.1058    4.6997    1.1236 N   0  0  0  0  0  0  0  0  0  0  0  0
    7.8968    4.3367    2.1956 C   0  0  0  0  0  0  0  0  0  0  0  0
    7.4426    3.6550    3.1171 O   0  0  0  0  0  0  0  0  0  0  0  0
    9.3843    4.8132    2.2119 C   0  0  2  0  0  0  0  0  0  0  0  0
    9.5483    6.2104    1.5855 C   0  0  0  0  0  0  0  0  0  0  0  0
    9.5655    6.3971    0.0788 C   0  0  0  0  0  0  0  0  0  0  0  0
    9.5555    5.3614   -0.8623 C   0  0  0  0  0  0  0  0  0  0  0  0
    9.5417    5.6407   -2.2312 C   0  0  0  0  0  0  0  0  0  0  0  0
    9.5180    6.9561   -2.6725 C   0  0  0  0  0  0  0  0  0  0  0  0
    9.5146    7.9975   -1.7559 C   0  0  0  0  0  0  0  0  0  0  0  0
    9.5428    7.7223   -0.3911 C   0  0  0  0  0  0  0  0  0  0  0  0
   10.4615    3.8851    1.8090 N   0  0  0  0  0  0  0  0  0  0  0  0
   11.4133    3.3941    2.6773 C   0  0  0  0  0  0  0  0  0  0  0  0
   11.2558    3.3903    3.8978 O   0  0  0  0  0  0  0  0  0  0  0  0
   12.6868    2.7481    2.0333 C   0  0  1  0  0  0  0  0  0  0  0  0
   12.4514    1.3202    1.8708 N   0  0  0  0  0  0  0  0  0  0  0  0
   11.6869    0.8107    0.8697 C   0  0  0  0  0  0  0  0  0  0  0  0
   11.3463    1.4077   -0.1416 O   0  0  0  0  0  0  0  0  0  0  0  0
   11.3076   -0.4456    1.2101 O   0  0  0  0  0  0  0  0  0  0  0  0
   10.3640   -1.0606    0.3112 C   0  0  0  0  0  0  0  0  0  0  0  0
    8.9809   -0.4284    0.3006 C   0  0  0  0  0  0  0  0  0  0  0  0
    8.5738    0.4692    1.2889 C   0  0  0  0  0  0  0  0  0  0  0  0
    7.3078    1.0380    1.2238 C   0  0  0  0  0  0  0  0  0  0  0  0
    6.4445    0.7474    0.1722 C   0  0  0  0  0  0  0  0  0  0  0  0
    6.8287   -0.1687   -0.7939 C   0  0  0  0  0  0  0  0  0  0  0  0
    8.0823   -0.7752   -0.7192 C   0  0  0  0  0  0  0  0  0  0  0  0
   13.2499    3.4710    0.7808 C   0  0  0  0  0  0  0  0  0  0  0  0
   13.5579    4.9437    1.0680 C   0  0  0  0  0  0  0  0  0  0  0  0
   14.5195    2.7892    0.2528 C   0  0  0  0  0  0  0  0  0  0  0  0
  1  2  1  0
  2  3  1  0
  3  4  2  0
  5 13  1  0
  5  6  1  1
  5  3  1  0
  7  8  1  0
  7 11  1  0
  7  6  1  6
  8  9  1  0
  9 10  1  0
 10 11  1  0
 11 12  2  0
 13 14  1  0
 14 15  2  0
 16 24  1  0
 16 17  1  6
 16 14  1  0
 17 18  1  0
 18 19  2  0
 18 23  1  0
 19 20  1  0
 20 21  2  0
 21 22  1  0
 22 23  2  0
 24 25  1  0
 25 26  2  0
 25 27  1  0
 27 28  1  6
 27 39  1  0
 28 29  1  0
 29 30  2  0
 29 31  1  0
 31 32  1  0
 32 33  1  0
 33 34  2  0
 33 38  1  0
 34 35  1  0
 35 36  2  0
 36 37  1  0
 37 38  2  0
 39 40  1  0
 39 41  1  0
M  END
$$$$
