mol52
     RDKit          3D

 39 41  0  0  1  0  0  0  0  0999 V2000
   17.7704   -1.8201   -2.3131 C   0  0  0  0  0  0  0  0  0  0  0  0
   17.4156   -1.0296   -1.0448 C   0  0  0  0  0  0  0  0  0  0  0  0
   18.4328   -1.3862    0.0439 C   0  0  0  0  0  0  0  0  0  0  0  0
   15.9466   -1.2167   -0.5812 C   0  0  2  0  0  0  0  0  0  0  0  0
   15.6485   -2.6111   -0.2503 N   0  0  0  0  0  0  0  0  0  0  0  0
   15.2311   -3.0368    0.9743 C   0  0  0  0  0  0  0  0  0  0  0  0
   15.1842   -2.3467    1.9814 O   0  0  0  0  0  0  0  0  0  0  0  0
   14.9308   -4.3580    0.9092 O   0  0  0  0  0  0  0  0  0  0  0  0
   14.6890   -5.0215    2.1600 C   0  0  0  0  0  0  0  0  0  0  0  0
   13.3692   -5.7549    2.1435 C   0  0  0  0  0  0  0  0  0  0  0  0
   13.3087   -7.1397    2.3666 C   0  0  0  0  0  0  0  0  0  0  0  0
   12.0764   -7.7983    2.4272 C   0  0  0  0  0  0  0  0  0  0  0  0
   10.8969   -7.0795    2.2680 C   0  0  0  0  0  0  0  0  0  0  0  0
   10.9382   -5.7065    2.0453 C   0  0  0  0  0  0  0  0  0  0  0  0
   12.1711   -5.0473    1.9828 C   0  0  0  0  0  0  0  0  0  0  0  0
   14.8601   -0.7162   -1.5927 C   0  0  0  0  0  0  0  0  0  0  0  0
   13.6576   -0.9008   -1.4015 O   0  0  0  0  0  0  0  0  0  0  0  0
   15.3161   -0.0887   -2.7290 N   0  0  0  0  0  0  0  0  0  0  0  0
   14.4761    0.4116   -3.8194 C   0  0  1  0  0  0  0  0  0  0  0  0
   13.8175    1.7325   -3.3716 C   0  0  0  0  0  0  0  0  0  0  0  0
   14.8024    2.7651   -2.7687 C   0  0  0  0  0  0  0  0  0  0  0  0
   14.0687    3.9363   -2.0992 C   0  0  0  0  0  0  0  0  0  0  0  0
   15.0715    4.9179   -1.4855 C   0  0  0  0  0  0  0  0  0  0  0  0
   16.0699    5.4319   -2.5196 C   0  0  0  0  0  0  0  0  0  0  0  0
   16.7735    4.2891   -3.2321 C   0  0  0  0  0  0  0  0  0  0  0  0
   15.7761    3.3035   -3.8167 C   0  0  0  0  0  0  0  0  0  0  0  0
   15.3564    0.4915   -5.1350 C   0  0  0  0  0  0  0  0  0  0  0  0
   16.5368    0.1484   -5.1316 O   0  0  0  0  0  0  0  0  0  0  0  0
   14.7135    0.9435   -6.2717 N   0  0  0  0  0  0  0  0  0  0  0  0
   15.4063    1.2429   -7.5574 C   0  0  2  0  0  0  0  0  0  0  0  0
   15.8436    2.7261   -7.6395 C   0  0  0  0  0  0  0  0  0  0  0  0
   16.7984    3.0962   -6.6574 O   0  0  0  0  0  0  0  0  0  0  0  0
   14.4486    0.9047   -8.7333 C   0  0  0  0  0  0  0  0  0  0  0  0
   14.9914    1.1912  -10.1468 C   0  0  2  0  0  0  0  0  0  0  0  0
   13.9701    0.8719  -11.2532 C   0  0  0  0  0  0  0  0  0  0  0  0
   14.2152   -0.5889  -11.5779 C   0  0  0  0  0  0  0  0  0  0  0  0
   15.6108   -0.7508  -11.3060 N   0  0  0  0  0  0  0  0  0  0  0  0
   16.1207    0.2511  -10.5089 C   0  0  0  0  0  0  0  0  0  0  0  0
   17.2739    0.3403  -10.1284 O   0  0  0  0  0  0  0  0  0  0  0  0
  1  2  1  0
  2  3  1  0
  4 16  1  0
  4  5  1  6
  4  2  1  0
  5  6  1  0
  6  7  2  0
  6  8  1  0
  8  9  1  0
  9 10  1  0
 10 11  2  0
 10 15  1  0
 11 12  1  0
 12 13  2  0
 13 14  1  0
 14 15  2  0
 16 17  2  0
 16 18  1  0
 18 19  1  0
 19 20  1  1
 19 27  1  0
 20 21  1  0
 21 22  1  0
 21 26  1  0
 22 23  1  0
 23 24  1  0
 24 25  1  0
 25 26  1  0
 27 28  2  0
 27 29  1  0
 30 33  1  6
 30 31  1  0
 30 29  1  0
 31 32  1  0
 34 35  1  0
 34 38  1  0
 34 33  1  1
 35 36  1  0
 36 37  1  0
 37 38  1  0
 38 39  2  0
M  END
$$$$
