mol56
     RDKit          3D

 33 36  0  0  1  0  0  0  0  0999 V2000
    7.8784    5.1379    1.4867 C   0  0  2  0  0  0  0  0  0  0  0  0
    8.0901    3.6589    1.1423 C   0  0  0  0  0  0  0  0  0  0  0  0
    9.4645    3.3552    0.5335 C   0  0  2  0  0  0  0  0  0  0  0  0
    9.5823    1.9267    0.2351 N   0  0  0  0  0  0  0  0  0  0  0  0
    9.2086    1.3917   -0.9837 C   0  0  0  0  0  0  0  0  0  0  0  0
    8.6427    2.0433   -1.8589 O   0  0  0  0  0  0  0  0  0  0  0  0
    9.5836   -0.0999   -1.1721 C   0  0  2  0  0  0  0  0  0  0  0  0
   11.1164   -0.2708   -1.0996 C   0  0  0  0  0  0  0  0  0  0  0  0
   11.9542    0.5258   -2.1305 C   0  0  0  0  0  0  0  0  0  0  0  0
   11.6583    0.1307   -3.5862 C   0  0  0  0  0  0  0  0  0  0  0  0
   12.5875    0.7949   -4.5938 C   0  0  0  0  0  0  0  0  0  0  0  0
   14.0504    0.5731   -4.2446 C   0  0  0  0  0  0  0  0  0  0  0  0
   14.3468    1.0368   -2.8242 C   0  0  0  0  0  0  0  0  0  0  0  0
   13.4488    0.3317   -1.8128 C   0  0  0  0  0  0  0  0  0  0  0  0
    8.9816   -0.6088   -2.4005 N   0  0  0  0  0  0  0  0  0  0  0  0
    9.1188   -1.9026   -2.8451 C   0  0  0  0  0  0  0  0  0  0  0  0
    9.6510   -2.7793   -2.1708 O   0  0  0  0  0  0  0  0  0  0  0  0
    8.6181   -2.1609   -4.1807 C   0  0  0  0  0  0  0  0  0  0  0  0
    8.0483   -1.3358   -5.1365 C   0  0  0  0  0  0  0  0  0  0  0  0
    7.7016   -2.1255   -6.2691 C   0  0  0  0  0  0  0  0  0  0  0  0
    7.0752   -1.8469   -7.4993 C   0  0  0  0  0  0  0  0  0  0  0  0
    6.8597   -2.8876   -8.4096 C   0  0  0  0  0  0  0  0  0  0  0  0
    7.2712   -4.1855   -8.1123 C   0  0  0  0  0  0  0  0  0  0  0  0
    7.9079   -4.4825   -6.9032 C   0  0  0  0  0  0  0  0  0  0  0  0
    8.1041   -3.4313   -5.9970 C   0  0  0  0  0  0  0  0  0  0  0  0
    8.6819   -3.4176   -4.7498 N   0  0  0  0  0  0  0  0  0  0  0  0
   10.5891    3.7415    1.4912 C   0  0  0  0  0  0  0  0  0  0  0  0
   11.7515    3.9467    1.1536 O   0  0  0  0  0  0  0  0  0  0  0  0
    6.4892    5.3892    2.0945 C   0  0  0  0  0  0  0  0  0  0  0  0
    5.6107    5.7001    0.8978 C   0  0  0  0  0  0  0  0  0  0  0  0
    6.5170    6.3140   -0.0218 N   0  0  0  0  0  0  0  0  0  0  0  0
    7.8324    5.9990    0.2397 C   0  0  0  0  0  0  0  0  0  0  0  0
    8.7835    6.3198   -0.4410 O   0  0  0  0  0  0  0  0  0  0  0  0
  1  2  1  6
  1 29  1  0
  1 32  1  0
  3 27  1  0
  3  4  1  0
  3  2  1  1
  4  5  1  0
  5  6  2  0
  7 15  1  0
  7  8  1  6
  7  5  1  0
  8  9  1  0
  9 10  1  0
  9 14  1  0
 10 11  1  0
 11 12  1  0
 12 13  1  0
 13 14  1  0
 15 16  1  0
 16 17  2  0
 16 18  1  0
 18 19  2  0
 18 26  1  0
 19 20  1  0
 20 21  2  0
 20 25  1  0
 21 22  1  0
 22 23  2  0
 23 24  1  0
 24 25  2  0
 25 26  1  0
 27 28  2  0
 29 30  1  0
 30 31  1  0
 31 32  1  0
 32 33  2  0
M  END
$$$$
