mol50
     RDKit          3D

 45 47  0  0  1  0  0  0  0  0999 V2000
   10.4442   -0.3790    3.5347 C   0  0  0  0  0  0  0  0  0  0  0  0
    9.7919    0.8964    3.4527 O   0  0  0  0  0  0  0  0  0  0  0  0
   10.1857    1.8301    4.3687 C   0  0  0  0  0  0  0  0  0  0  0  0
   10.9941    1.6237    5.2559 O   0  0  0  0  0  0  0  0  0  0  0  0
    9.5476    3.2024    4.0711 C   0  0  2  0  0  0  0  0  0  0  0  0
    9.1325    3.9415    5.3430 C   0  0  0  0  0  0  0  0  0  0  0  0
    8.0546    3.2546    6.1980 C   0  0  2  0  0  0  0  0  0  0  0  0
    6.6389    3.1447    5.6029 C   0  0  0  0  0  0  0  0  0  0  0  0
    5.9767    4.4570    5.9645 C   0  0  0  0  0  0  0  0  0  0  0  0
    6.5687    4.7663    7.2275 N   0  0  0  0  0  0  0  0  0  0  0  0
    7.7851    4.1360    7.4062 C   0  0  0  0  0  0  0  0  0  0  0  0
    8.5291    4.3189    8.3513 O   0  0  0  0  0  0  0  0  0  0  0  0
    8.4311    3.0584    3.1474 N   0  0  0  0  0  0  0  0  0  0  0  0
    8.0026    4.0630    2.3042 C   0  0  0  0  0  0  0  0  0  0  0  0
    8.4756    5.1903    2.3819 O   0  0  0  0  0  0  0  0  0  0  0  0
    6.8523    3.6590    1.3196 C   0  0  2  0  0  0  0  0  0  0  0  0
    6.7081    2.1407    1.0847 C   0  0  0  0  0  0  0  0  0  0  0  0
    7.8713    1.3782    0.4492 C   0  0  0  0  0  0  0  0  0  0  0  0
    9.2110    1.8095    0.4368 C   0  0  0  0  0  0  0  0  0  0  0  0
   10.2314    1.0133   -0.0914 C   0  0  0  0  0  0  0  0  0  0  0  0
    9.9271   -0.2142   -0.6637 C   0  0  0  0  0  0  0  0  0  0  0  0
    8.6040   -0.6464   -0.6985 C   0  0  0  0  0  0  0  0  0  0  0  0
    7.5893    0.1342   -0.1345 C   0  0  0  0  0  0  0  0  0  0  0  0
    6.9808    4.2695    0.0054 N   0  0  0  0  0  0  0  0  0  0  0  0
    6.2956    5.3457   -0.4922 C   0  0  0  0  0  0  0  0  0  0  0  0
    5.4226    5.9292    0.1489 O   0  0  0  0  0  0  0  0  0  0  0  0
    6.7975    5.8427   -1.8812 C   0  0  1  0  0  0  0  0  0  0  0  0
    7.5589    7.0946   -1.7269 N   0  0  0  0  0  0  0  0  0  0  0  0
    8.6939    7.1677   -0.9631 C   0  0  0  0  0  0  0  0  0  0  0  0
    9.0408    6.2783   -0.1922 O   0  0  0  0  0  0  0  0  0  0  0  0
    9.4045    8.2852   -1.2074 O   0  0  0  0  0  0  0  0  0  0  0  0
   10.5133    8.4648   -0.3108 C   0  0  0  0  0  0  0  0  0  0  0  0
   11.8805    8.2446   -0.9276 C   0  0  0  0  0  0  0  0  0  0  0  0
   12.5559    9.3155   -1.5349 C   0  0  0  0  0  0  0  0  0  0  0  0
   13.8917    9.1748   -1.9407 C   0  0  0  0  0  0  0  0  0  0  0  0
   14.5578    7.9641   -1.7618 C   0  0  0  0  0  0  0  0  0  0  0  0
   13.8838    6.8809   -1.2008 C   0  0  0  0  0  0  0  0  0  0  0  0
   12.5492    7.0174   -0.7923 C   0  0  0  0  0  0  0  0  0  0  0  0
    7.4777    4.7989   -2.8558 C   0  0  1  0  0  0  0  0  0  0  0  0
    8.9353    4.4577   -2.5306 C   0  0  0  0  0  0  0  0  0  0  0  0
    6.6644    3.6055   -2.9859 O   0  0  0  0  0  0  0  0  0  0  0  0
    7.0198    2.5833   -3.9517 C   0  0  0  0  0  0  0  0  0  0  0  0
    8.1865    1.7108   -3.4746 C   0  0  0  0  0  0  0  0  0  0  0  0
    5.8159    1.6208   -4.0523 C   0  0  0  0  0  0  0  0  0  0  0  0
    7.2944    3.1506   -5.3469 C   0  0  0  0  0  0  0  0  0  0  0  0
  1  2  1  0
  2  3  1  0
  3  4  2  0
  5 13  1  0
  5  6  1  1
  5  3  1  0
  7  8  1  0
  7 11  1  0
  7  6  1  6
  8  9  1  0
  9 10  1  0
 10 11  1  0
 11 12  2  0
 13 14  1  0
 14 15  2  0
 16 24  1  0
 16 17  1  6
 16 14  1  0
 17 18  1  0
 18 19  2  0
 18 23  1  0
 19 20  1  0
 20 21  2  0
 21 22  1  0
 22 23  2  0
 24 25  1  0
 25 26  2  0
 25 27  1  0
 27 28  1  1
 27 39  1  0
 28 29  1  0
 29 30  2  0
 29 31  1  0
 31 32  1  0
 32 33  1  0
 33 34  2  0
 33 38  1  0
 34 35  1  0
 35 36  2  0
 36 37  1  0
 37 38  2  0
 39 40  1  1
 39 41  1  0
 41 42  1  0
 42 43  1  0
 42 44  1  0
 42 45  1  0
M  END
$$$$
