mol54
     RDKit          3D

 34 36  0  0  1  0  0  0  0  0999 V2000
    6.8669    4.8311   -0.8026 O   0  0  0  0  0  0  0  0  0  0  0  0
    7.2874    5.4593    0.4100 C   0  0  0  0  0  0  0  0  0  0  0  0
    8.4116    4.6504    1.0888 C   0  0  2  0  0  0  0  0  0  0  0  0
    9.6651    4.4874    0.1936 C   0  0  0  0  0  0  0  0  0  0  0  0
   10.2755    5.8179   -0.2747 C   0  0  2  0  0  0  0  0  0  0  0  0
   11.5297    5.6377   -1.1450 C   0  0  0  0  0  0  0  0  0  0  0  0
   12.6746    5.6068   -0.1502 C   0  0  0  0  0  0  0  0  0  0  0  0
   12.2047    6.4429    0.9107 N   0  0  0  0  0  0  0  0  0  0  0  0
   10.8360    6.5953    0.8996 C   0  0  0  0  0  0  0  0  0  0  0  0
   10.1902    7.2097    1.7304 O   0  0  0  0  0  0  0  0  0  0  0  0
    7.9369    3.3253    1.5150 N   0  0  0  0  0  0  0  0  0  0  0  0
    7.2229    3.1240    2.6810 C   0  0  0  0  0  0  0  0  0  0  0  0
    6.9261    4.0356    3.4521 O   0  0  0  0  0  0  0  0  0  0  0  0
    6.8720    1.6508    2.9838 C   0  0  2  0  0  0  0  0  0  0  0  0
    5.3423    1.4882    3.0630 C   0  0  0  0  0  0  0  0  0  0  0  0
    4.8794    0.0567    3.2720 C   0  0  0  0  0  0  0  0  0  0  0  0
    4.0761   -0.2848    4.3713 C   0  0  0  0  0  0  0  0  0  0  0  0
    3.6370   -1.5964    4.5492 C   0  0  0  0  0  0  0  0  0  0  0  0
    3.9895   -2.5870    3.6341 C   0  0  0  0  0  0  0  0  0  0  0  0
    4.7814   -2.2603    2.5365 C   0  0  0  0  0  0  0  0  0  0  0  0
    5.2185   -0.9461    2.3532 C   0  0  0  0  0  0  0  0  0  0  0  0
    7.5105    1.2705    4.2443 N   0  0  0  0  0  0  0  0  0  0  0  0
    8.7791    0.7569    4.2656 C   0  0  0  0  0  0  0  0  0  0  0  0
    9.4705    0.6060    3.2661 O   0  0  0  0  0  0  0  0  0  0  0  0
    9.2217    0.3432    5.6218 C   0  0  0  0  0  0  0  0  0  0  0  0
   10.4165   -0.2522    5.7736 C   0  0  0  0  0  0  0  0  0  0  0  0
   10.9174   -0.8421    7.0255 C   0  0  0  0  0  0  0  0  0  0  0  0
   10.0581   -1.3933    7.9845 C   0  0  0  0  0  0  0  0  0  0  0  0
   10.5777   -2.0334    9.1083 C   0  0  0  0  0  0  0  0  0  0  0  0
    9.7377   -2.5635   10.0068 F   0  0  0  0  0  0  0  0  0  0  0  0
   11.9431   -2.1469    9.3055 C   0  0  0  0  0  0  0  0  0  0  0  0
   12.8051   -1.6087    8.3548 C   0  0  0  0  0  0  0  0  0  0  0  0
   14.5071   -1.7626    8.5667 Cl  0  0  0  0  0  0  0  0  0  0  0  0
   12.3026   -0.9596    7.2221 C   0  0  0  0  0  0  0  0  0  0  0  0
  1  2  1  0
  3 11  1  0
  3  4  1  6
  3  2  1  0
  5  6  1  0
  5  9  1  0
  5  4  1  1
  6  7  1  0
  7  8  1  0
  8  9  1  0
  9 10  2  0
 11 12  1  0
 12 13  2  0
 14 22  1  0
 14 15  1  1
 14 12  1  0
 15 16  1  0
 16 17  2  0
 16 21  1  0
 17 18  1  0
 18 19  2  0
 19 20  1  0
 20 21  2  0
 22 23  1  0
 23 24  2  0
 23 25  1  0
 25 26  2  0
 26 27  1  0
 27 28  2  0
 27 34  1  0
 28 29  1  0
 29 30  1  0
 29 31  2  0
 31 32  1  0
 32 33  1  0
 32 34  2  0
M  END
$$$$
