mol51
     RDKit          3D

 40 41  0  0  1  0  0  0  0  0999 V2000
   10.3846    5.8379   -3.8816 C   0  0  0  0  0  0  0  0  0  0  0  0
   10.9386    4.4210   -3.7710 C   0  0  0  0  0  0  0  0  0  0  0  0
   12.0066    4.4163   -2.6748 C   0  0  0  0  0  0  0  0  0  0  0  0
    9.9205    3.3047   -3.4325 C   0  0  0  0  0  0  0  0  0  0  0  0
    8.7083    3.1322   -4.3557 C   0  0  2  0  0  0  0  0  0  0  0  0
    9.0488    2.9589   -5.7616 N   0  0  0  0  0  0  0  0  0  0  0  0
   10.0871    2.2120   -6.2654 C   0  0  0  0  0  0  0  0  0  0  0  0
   10.7994    1.4979   -5.5801 O   0  0  0  0  0  0  0  0  0  0  0  0
   10.2515    2.2620   -7.8077 C   0  0  1  0  0  0  0  0  0  0  0  0
    9.8309    0.9987   -8.4322 N   0  0  0  0  0  0  0  0  0  0  0  0
    8.5667    0.4946   -8.3083 C   0  0  0  0  0  0  0  0  0  0  0  0
    7.7746    0.8326   -7.4400 O   0  0  0  0  0  0  0  0  0  0  0  0
    8.3041   -0.3820   -9.3095 O   0  0  0  0  0  0  0  0  0  0  0  0
    7.0268   -1.0345   -9.2232 C   0  0  0  0  0  0  0  0  0  0  0  0
    6.0644   -0.6498  -10.3268 C   0  0  0  0  0  0  0  0  0  0  0  0
    5.9874   -1.4105  -11.5028 C   0  0  0  0  0  0  0  0  0  0  0  0
    4.9956   -1.1554  -12.4569 C   0  0  0  0  0  0  0  0  0  0  0  0
    4.0800   -0.1248  -12.2537 C   0  0  0  0  0  0  0  0  0  0  0  0
    4.1677    0.6635  -11.1083 C   0  0  0  0  0  0  0  0  0  0  0  0
    5.1590    0.4083  -10.1539 C   0  0  0  0  0  0  0  0  0  0  0  0
    9.7631    3.5521   -8.5625 C   0  0  1  0  0  0  0  0  0  0  0  0
    8.2486    3.6495   -8.7282 C   0  0  0  0  0  0  0  0  0  0  0  0
   10.3285    4.7475   -7.9724 O   0  0  0  0  0  0  0  0  0  0  0  0
   10.1020    6.0378   -8.5903 C   0  0  0  0  0  0  0  0  0  0  0  0
    8.6892    6.5868   -8.3255 C   0  0  0  0  0  0  0  0  0  0  0  0
   11.0583    7.0385   -7.9076 C   0  0  0  0  0  0  0  0  0  0  0  0
   10.4300    6.0247  -10.0886 C   0  0  0  0  0  0  0  0  0  0  0  0
    7.6900    4.3151   -4.3016 C   0  0  0  0  0  0  0  0  0  0  0  0
    7.0109    4.6261   -5.2761 O   0  0  0  0  0  0  0  0  0  0  0  0
    7.5664    4.9616   -3.0863 N   0  0  0  0  0  0  0  0  0  0  0  0
    7.0033    6.3114   -3.0146 C   0  0  1  0  0  0  0  0  0  0  0  0
    5.4821    6.2509   -3.1103 C   0  0  0  0  0  0  0  0  0  0  0  0
    4.7823    7.5946   -2.9289 C   0  0  2  0  0  0  0  0  0  0  0  0
    3.2633    7.4257   -3.0644 C   0  0  0  0  0  0  0  0  0  0  0  0
    2.9962    7.6713   -4.5370 C   0  0  0  0  0  0  0  0  0  0  0  0
    4.0190    8.6007   -4.9058 N   0  0  0  0  0  0  0  0  0  0  0  0
    5.1018    8.5538   -4.0593 C   0  0  0  0  0  0  0  0  0  0  0  0
    6.1583    9.1461   -4.2190 O   0  0  0  0  0  0  0  0  0  0  0  0
    7.4606    6.9354   -1.6909 C   0  0  0  0  0  0  0  0  0  0  0  0
    8.5793    7.4031   -1.4917 O   0  0  0  0  0  0  0  0  0  0  0  0
  1  2  1  0
  2  3  1  0
  2  4  1  0
  5 28  1  0
  5  6  1  0
  5  4  1  1
  6  7  1  0
  7  8  2  0
  7  9  1  0
  9 10  1  6
  9 21  1  0
 10 11  1  0
 11 12  2  0
 11 13  1  0
 13 14  1  0
 14 15  1  0
 15 16  2  0
 15 20  1  0
 16 17  1  0
 17 18  2  0
 18 19  1  0
 19 20  2  0
 21 22  1  1
 21 23  1  0
 23 24  1  0
 24 25  1  0
 24 26  1  0
 24 27  1  0
 28 29  2  0
 28 30  1  0
 30 31  1  0
 31 32  1  1
 31 39  1  0
 33 34  1  0
 33 37  1  0
 33 32  1  6
 34 35  1  0
 35 36  1  0
 36 37  1  0
 37 38  2  0
 39 40  2  0
M  END
$$$$
