mol55
     RDKit          3D

 34 34  0  0  1  0  0  0  0  0999 V2000
    2.3416   -0.8156    0.6475 Na  0  0  0  0  0 15  0  0  0  0  0  0
    6.6389   -9.2380    1.1723 C   0  0  0  0  0  0  0  0  0  0  0  0
    7.8305   -8.6649    0.4031 C   0  0  0  0  0  0  0  0  0  0  0  0
    9.1262   -9.2376    0.9884 C   0  0  0  0  0  0  0  0  0  0  0  0
    7.7778   -8.9448   -1.1128 C   0  0  0  0  0  0  0  0  0  0  0  0
    6.5716   -8.3498   -1.8646 C   0  0  2  0  0  0  0  0  0  0  0  0
    6.6276   -8.6581   -3.3025 N   0  0  0  0  0  0  0  0  0  0  0  0
    6.5516   -9.9243   -3.8138 C   0  0  0  0  0  0  0  0  0  0  0  0
    6.3465  -10.9263   -3.1453 O   0  0  0  0  0  0  0  0  0  0  0  0
    6.7776   -9.9049   -5.1530 O   0  0  0  0  0  0  0  0  0  0  0  0
    6.9678  -11.1827   -5.7936 C   0  0  0  0  0  0  0  0  0  0  0  0
    5.9932  -11.4500   -6.9247 C   0  0  0  0  0  0  0  0  0  0  0  0
    5.4524  -10.4142   -7.6991 C   0  0  0  0  0  0  0  0  0  0  0  0
    4.6235  -10.6956   -8.7896 C   0  0  0  0  0  0  0  0  0  0  0  0
    4.3250  -12.0148   -9.1275 C   0  0  0  0  0  0  0  0  0  0  0  0
    4.8574  -13.0559   -8.3732 C   0  0  0  0  0  0  0  0  0  0  0  0
    5.6882  -12.7764   -7.2829 C   0  0  0  0  0  0  0  0  0  0  0  0
    6.5771   -6.8038   -1.7136 C   0  0  0  0  0  0  0  0  0  0  0  0
    7.3497   -6.0962   -2.3609 O   0  0  0  0  0  0  0  0  0  0  0  0
    5.6538   -6.2842   -0.8300 N   0  0  0  0  0  0  0  0  0  0  0  0
    5.4607   -4.8245   -0.5828 C   0  0  1  0  0  0  0  0  0  0  0  0
    4.7667   -4.1656   -1.8009 C   0  0  0  0  0  0  0  0  0  0  0  0
    3.2938   -4.5487   -2.0088 C   0  0  2  0  0  0  0  0  0  0  0  0
    3.0486   -5.9922   -2.4747 C   0  0  0  0  0  0  0  0  0  0  0  0
    2.9933   -5.8960   -3.9818 C   0  0  0  0  0  0  0  0  0  0  0  0
    2.4257   -4.6046   -4.1985 N   0  0  0  0  0  0  0  0  0  0  0  0
    2.6896   -3.7446   -3.1511 C   0  0  0  0  0  0  0  0  0  0  0  0
    2.4767   -2.5435   -3.1636 O   0  0  0  0  0  0  0  0  0  0  0  0
    4.7609   -4.6085    0.7906 C   0  0  1  0  0  0  0  0  0  0  0  0
    5.5353   -5.3231    1.7936 O   0  0  0  0  0  0  0  0  0  0  0  0
    4.5075   -2.8219    1.1807 S   0  0  0  0  0  0  0  0  0  0  0  0
    5.8478   -2.2510    1.2158 O   0  0  0  0  0  0  0  0  0  0  0  0
    3.6500   -2.2666    0.1427 O   0  0  0  0  0  0  0  0  0  0  0  0
    3.7981   -2.7732    2.4533 O   0  0  0  0  0  0  0  0  0  0  0  0
  2  3  1  0
  3  4  1  0
  3  5  1  0
  6 18  1  0
  6  7  1  0
  6  5  1  1
  7  8  1  0
  8  9  2  0
  8 10  1  0
 10 11  1  0
 11 12  1  0
 12 13  2  0
 12 17  1  0
 13 14  1  0
 14 15  2  0
 15 16  1  0
 16 17  2  0
 18 19  2  0
 18 20  1  0
 20 21  1  0
 21 22  1  6
 21 29  1  0
 23 24  1  0
 23 27  1  0
 23 22  1  6
 24 25  1  0
 25 26  1  0
 26 27  1  0
 27 28  2  0
 29 30  1  1
 29 31  1  0
 31 32  1  0
 31 33  2  0
 31 34  2  0
M  CHG  2   1   1  32  -1
M  END
$$$$
