mol5
     RDKit          3D

 24 28  0  0  0  0  0  0  0  0999 V2000
    2.0943   -0.5338    3.0970 N   0  0  0  0  0  0  0  0  0  0  0  0
    3.2884   -0.4686    2.4730 C   0  0  0  0  0  0  0  0  0  0  0  0
    4.2508   -1.3473    2.5755 N   0  0  0  0  0  0  0  0  0  0  0  0
    5.2717   -0.7838    1.8510 C   0  0  0  0  0  0  0  0  0  0  0  0
    6.4525   -1.2799    1.6853 N   0  0  0  0  0  0  0  0  0  0  0  0
    7.2929   -0.5510    0.8412 C   0  0  0  0  0  0  0  0  0  0  0  0
    8.2331   -1.3751   -0.0131 C   0  0  0  0  0  0  0  0  0  0  0  0
    9.5612   -1.8151    0.4800 N   0  0  0  0  0  0  0  0  0  0  0  0
    9.8916   -3.1075   -0.2340 C   0  0  0  0  0  0  0  0  0  0  0  0
   10.2157   -2.7874   -1.8214 C   0  0  0  0  0  0  0  0  0  0  0  0
    9.6885   -1.7544   -3.0907 C   0  0  0  0  0  0  0  0  0  0  0  0
    8.4187   -2.5139   -3.2798 C   0  0  0  0  0  0  0  0  0  0  0  0
    8.9066   -3.5072   -2.2639 C   0  0  0  0  0  0  0  0  0  0  0  0
   11.1920   -1.6887   -1.2366 C   0  0  0  0  0  0  0  0  0  0  0  0
   12.5383   -1.5108   -1.5982 C   0  0  0  0  0  0  0  0  0  0  0  0
   13.3943   -0.7881   -0.7668 C   0  0  0  0  0  0  0  0  0  0  0  0
   12.8974   -0.1743    0.3893 C   0  0  0  0  0  0  0  0  0  0  0  0
   11.5520   -0.3180    0.7628 C   0  0  0  0  0  0  0  0  0  0  0  0
   10.7231   -1.1090   -0.0353 C   0  0  0  0  0  0  0  0  0  0  0  0
    7.0195    0.6996    0.4104 C   0  0  0  0  0  0  0  0  0  0  0  0
    5.6932    1.2953    0.7149 C   0  0  0  0  0  0  0  0  0  0  0  0
    5.4300    2.4493    0.4078 O   0  0  0  0  0  0  0  0  0  0  0  0
    4.8568    0.3982    1.3161 N   0  0  0  0  0  0  0  0  0  0  0  0
    3.5276    0.6229    1.6773 N   0  0  0  0  0  0  0  0  0  0  0  0
  1  2  1  0
  2  3  2  0
  2 24  1  0
  3  4  1  0
  4  5  2  0
  4 23  1  0
  5  6  1  0
  6  7  1  0
  6 20  2  0
  7  8  1  0
  8  9  1  0
  8 19  1  0
  9 10  1  0
 10 11  1  0
 10 13  1  0
 10 14  1  0
 11 12  1  0
 12 13  1  0
 14 15  1  0
 14 19  2  0
 15 16  2  0
 16 17  1  0
 17 18  2  0
 18 19  1  0
 20 21  1  0
 21 22  2  0
 21 23  1  0
 23 24  1  0
M  END
$$$$
