mol6
     RDKit          3D

 24 27  0  0  0  0  0  0  0  0999 V2000
    2.4005    5.1629    3.5043 C   0  0  0  0  0  0  0  0  0  0  0  0
    2.5069    3.9037    2.7447 C   0  0  0  0  0  0  0  0  0  0  0  0
    2.4927    3.7115    1.4496 N   0  0  0  0  0  0  0  0  0  0  0  0
    2.6358    2.3428    1.3447 C   0  0  0  0  0  0  0  0  0  0  0  0
    2.6711    1.7017    2.5260 N   0  0  0  0  0  0  0  0  0  0  0  0
    2.6056    2.7454    3.4594 O   0  0  0  0  0  0  0  0  0  0  0  0
    2.6235    1.6220    0.0040 C   0  0  0  0  0  0  0  0  0  0  0  0
    2.4914    2.6143   -1.1793 C   0  0  0  0  0  0  0  0  0  0  0  0
    1.7103    1.9048   -2.2823 C   0  0  0  0  0  0  0  0  0  0  0  0
    1.0207    0.7132   -1.6366 C   0  0  0  0  0  0  0  0  0  0  0  0
    1.3060    0.8198   -0.1430 C   0  0  0  0  0  0  0  0  0  0  0  0
    3.8203    0.7357   -0.1507 N   0  0  0  0  0  0  0  0  0  0  0  0
    5.0969    1.2456   -0.0183 C   0  0  0  0  0  0  0  0  0  0  0  0
    5.3061    2.4482    0.1491 O   0  0  0  0  0  0  0  0  0  0  0  0
    6.1055    0.2932   -0.1532 N   0  0  0  0  0  0  0  0  0  0  0  0
    7.4661    0.7289   -0.1331 C   0  0  0  0  0  0  0  0  0  0  0  0
    8.2954    0.4621   -1.2377 C   0  0  0  0  0  0  0  0  0  0  0  0
    9.5952    1.0031   -1.3067 C   0  0  0  0  0  0  0  0  0  0  0  0
   10.0580    1.7618   -0.2421 C   0  0  0  0  0  0  0  0  0  0  0  0
   11.3701    2.4531   -0.0617 C   0  0  0  0  0  0  0  0  0  0  0  0
   11.3196    3.1153    1.2635 N   0  0  0  0  0  0  0  0  0  0  0  0
    9.9828    2.8450    1.8489 C   0  0  0  0  0  0  0  0  0  0  0  0
    9.2583    1.9850    0.8682 C   0  0  0  0  0  0  0  0  0  0  0  0
    7.9663    1.4764    0.9409 C   0  0  0  0  0  0  0  0  0  0  0  0
  1  2  1  0
  2  3  2  0
  2  6  1  0
  3  4  1  0
  4  5  2  0
  4  7  1  0
  5  6  1  0
  7  8  1  0
  7 11  1  0
  7 12  1  0
  8  9  1  0
  9 10  1  0
 10 11  1  0
 12 13  1  0
 13 14  2  0
 13 15  1  0
 15 16  1  0
 16 17  2  0
 16 24  1  0
 17 18  1  0
 18 19  2  0
 19 20  1  0
 19 23  1  0
 20 21  1  0
 21 22  1  0
 22 23  1  0
 23 24  2  0
M  END
$$$$
