mol7
     RDKit          3D

 38 42  0  0  0  0  0  0  0  0999 V2000
   -1.4949   -1.8173    1.1271 Cl  0  0  0  0  0  0  0  0  0  0  0  0
   -0.2371   -0.6469    0.9436 C   0  0  0  0  0  0  0  0  0  0  0  0
    1.0363   -1.1065    0.6151 C   0  0  0  0  0  0  0  0  0  0  0  0
    2.1077   -0.2072    0.4779 C   0  0  0  0  0  0  0  0  0  0  0  0
    3.6658   -0.9564    0.3620 Cl  0  0  0  0  0  0  0  0  0  0  0  0
    1.9034    1.1830    0.6107 C   0  0  0  0  0  0  0  0  0  0  0  0
    2.8842    2.1992    0.4644 N   0  0  0  0  0  0  0  0  0  0  0  0
    3.9757    2.1870   -0.3880 C   0  0  0  0  0  0  0  0  0  0  0  0
    4.1894    1.3437   -1.2476 O   0  0  0  0  0  0  0  0  0  0  0  0
    4.8437    3.3689   -0.2329 C   0  0  0  0  0  0  0  0  0  0  0  0
    6.0456    3.6473   -0.8691 C   0  0  0  0  0  0  0  0  0  0  0  0
    6.4881    4.8407   -0.3157 N   0  0  0  0  0  0  0  0  0  0  0  0
    5.5300    5.2619    0.5656 C   0  0  0  0  0  0  0  0  0  0  0  0
    4.5320    4.4063    0.6455 N   0  0  0  0  0  0  0  0  0  0  0  0
    7.7135    5.4531   -0.6541 C   0  0  0  0  0  0  0  0  0  0  0  0
    7.9739    6.5044   -0.0914 O   0  0  0  0  0  0  0  0  0  0  0  0
    8.5185    4.7779   -1.6523 C   0  0  0  0  0  0  0  0  0  0  0  0
    9.7401    5.0276   -2.2595 C   0  0  0  0  0  0  0  0  0  0  0  0
   10.0036    4.0389   -3.2053 N   0  0  0  0  0  0  0  0  0  0  0  0
    8.9984    3.1942   -3.1360 C   0  0  0  0  0  0  0  0  0  0  0  0
    8.0637    3.5972   -2.2224 N   0  0  0  0  0  0  0  0  0  0  0  0
    6.8415    2.9835   -1.8824 C   0  0  0  0  0  0  0  0  0  0  0  0
    6.5651    1.9585   -2.4829 O   0  0  0  0  0  0  0  0  0  0  0  0
   10.6876    6.1207   -2.0076 C   0  0  0  0  0  0  0  0  0  0  0  0
   10.5637    6.9034   -1.0745 O   0  0  0  0  0  0  0  0  0  0  0  0
   11.6902    6.1931   -2.9613 N   0  0  0  0  0  0  0  0  0  0  0  0
   12.6977    7.1831   -2.9627 C   0  0  0  0  0  0  0  0  0  0  0  0
   13.0814    7.7973   -4.1640 C   0  0  0  0  0  0  0  0  0  0  0  0
   12.2730    7.4332   -5.6477 Cl  0  0  0  0  0  0  0  0  0  0  0  0
   14.0732    8.7814   -4.1734 C   0  0  0  0  0  0  0  0  0  0  0  0
   14.7233    9.1287   -2.9862 C   0  0  0  0  0  0  0  0  0  0  0  0
   15.9592   10.3334   -3.0709 Cl  0  0  0  0  0  0  0  0  0  0  0  0
   14.3664    8.5038   -1.7863 C   0  0  0  0  0  0  0  0  0  0  0  0
   15.1569    8.8568   -0.2905 Cl  0  0  0  0  0  0  0  0  0  0  0  0
   13.3468    7.5449   -1.7752 C   0  0  0  0  0  0  0  0  0  0  0  0
    0.6234    1.6200    0.9868 C   0  0  0  0  0  0  0  0  0  0  0  0
   -0.4419    0.7180    1.1475 C   0  0  0  0  0  0  0  0  0  0  0  0
   -1.9799    1.3599    1.6046 Cl  0  0  0  0  0  0  0  0  0  0  0  0
  1  2  1  0
  2  3  2  0
  2 37  1  0
  3  4  1  0
  4  5  1  0
  4  6  2  0
  6  7  1  0
  6 36  1  0
  7  8  1  0
  8  9  2  0
  8 10  1  0
 10 11  2  0
 10 14  1  0
 11 12  1  0
 11 22  1  0
 12 13  1  0
 12 15  1  0
 13 14  2  0
 15 16  2  0
 15 17  1  0
 17 18  2  0
 17 21  1  0
 18 19  1  0
 18 24  1  0
 19 20  2  0
 20 21  1  0
 21 22  1  0
 22 23  2  0
 24 25  2  0
 24 26  1  0
 26 27  1  0
 27 28  2  0
 27 35  1  0
 28 29  1  0
 28 30  1  0
 30 31  2  0
 31 32  1  0
 31 33  1  0
 33 34  1  0
 33 35  2  0
 36 37  2  0
 37 38  1  0
M  END
$$$$
