mol8
     RDKit          3D

 24 26  0  0  0  0  0  0  0  0999 V2000
    2.9402    0.2592    1.0156 Cl  0  0  0  0  0  0  0  0  0  0  0  0
    1.3259    0.0950    0.4420 C   0  0  0  0  0  0  0  0  0  0  0  0
    0.7467   -1.1733    0.3597 C   0  0  0  0  0  0  0  0  0  0  0  0
   -0.5607   -1.3301   -0.1141 C   0  0  0  0  0  0  0  0  0  0  0  0
   -1.1936   -2.5940   -0.2407 N   0  0  0  0  0  0  0  0  0  0  0  0
   -0.7106   -3.8267    0.1410 C   0  0  0  0  0  0  0  0  0  0  0  0
    0.3703   -4.0051    0.6988 O   0  0  0  0  0  0  0  0  0  0  0  0
   -1.5877   -4.9608   -0.0481 C   0  0  0  0  0  0  0  0  0  0  0  0
   -2.6948   -5.2449   -0.8400 C   0  0  0  0  0  0  0  0  0  0  0  0
   -3.1340   -6.5425   -0.5857 N   0  0  0  0  0  0  0  0  0  0  0  0
   -2.3282   -7.0283    0.3258 C   0  0  0  0  0  0  0  0  0  0  0  0
   -1.3688   -6.1269    0.6583 N   0  0  0  0  0  0  0  0  0  0  0  0
   -3.2735   -4.3873   -1.8860 C   0  0  0  0  0  0  0  0  0  0  0  0
   -2.5748   -3.5363   -2.4328 O   0  0  0  0  0  0  0  0  0  0  0  0
   -4.6082   -4.5513   -2.2307 N   0  0  0  0  0  0  0  0  0  0  0  0
   -5.6322   -5.2758   -1.4723 C   0  0  0  0  0  0  0  0  0  0  0  0
   -6.3658   -6.2552   -2.3917 C   0  0  0  0  0  0  0  0  0  0  0  0
   -6.9293   -5.5633   -3.5217 O   0  0  0  0  0  0  0  0  0  0  0  0
   -5.9031   -4.9019   -4.2826 C   0  0  0  0  0  0  0  0  0  0  0  0
   -5.1364   -3.8889   -3.4228 C   0  0  0  0  0  0  0  0  0  0  0  0
   -1.2757   -0.1750   -0.4914 C   0  0  0  0  0  0  0  0  0  0  0  0
   -2.9122   -0.2741   -1.0484 Cl  0  0  0  0  0  0  0  0  0  0  0  0
   -0.6930    1.0952   -0.4033 C   0  0  0  0  0  0  0  0  0  0  0  0
    0.6137    1.2295    0.0613 C   0  0  0  0  0  0  0  0  0  0  0  0
  1  2  1  0
  2  3  2  0
  2 24  1  0
  3  4  1  0
  4  5  1  0
  4 21  2  0
  5  6  1  0
  6  7  2  0
  6  8  1  0
  8  9  2  0
  8 12  1  0
  9 10  1  0
  9 13  1  0
 10 11  2  0
 11 12  1  0
 13 14  2  0
 13 15  1  0
 15 16  1  0
 15 20  1  0
 16 17  1  0
 17 18  1  0
 18 19  1  0
 19 20  1  0
 21 22  1  0
 21 23  1  0
 23 24  2  0
M  END
$$$$
