mol9
     RDKit          3D

 34 38  0  0  0  0  0  0  0  0999 V2000
   -2.3709   -0.7439   -0.2342 Cl  0  0  0  0  0  0  0  0  0  0  0  0
   -0.7100   -0.2892   -0.3975 C   0  0  0  0  0  0  0  0  0  0  0  0
   -0.2496    1.0342   -0.5664 C   0  0  0  0  0  0  0  0  0  0  0  0
   -1.0069    2.2344   -0.4390 N   0  0  0  0  0  0  0  0  0  0  0  0
   -2.1116    2.4555    0.3645 C   0  0  0  0  0  0  0  0  0  0  0  0
   -2.5534    1.6755    1.1943 O   0  0  0  0  0  0  0  0  0  0  0  0
   -2.7022    3.7991    0.1946 C   0  0  0  0  0  0  0  0  0  0  0  0
   -3.8218    4.3242    0.8258 C   0  0  0  0  0  0  0  0  0  0  0  0
   -4.0092    5.5797    0.2610 N   0  0  0  0  0  0  0  0  0  0  0  0
   -2.9796    5.7893   -0.6172 C   0  0  0  0  0  0  0  0  0  0  0  0
   -2.1742    4.7479   -0.6812 N   0  0  0  0  0  0  0  0  0  0  0  0
   -5.0933    6.4268    0.5815 C   0  0  0  0  0  0  0  0  0  0  0  0
   -5.1443    7.4923   -0.0141 O   0  0  0  0  0  0  0  0  0  0  0  0
   -6.0211    5.9372    1.5813 C   0  0  0  0  0  0  0  0  0  0  0  0
   -7.1620    6.4386    2.1896 C   0  0  0  0  0  0  0  0  0  0  0  0
   -7.6272    5.5335    3.1400 N   0  0  0  0  0  0  0  0  0  0  0  0
   -6.8168    4.4912    3.0756 C   0  0  0  0  0  0  0  0  0  0  0  0
   -5.8177    4.6929    2.1622 N   0  0  0  0  0  0  0  0  0  0  0  0
   -4.7418    3.8430    1.8380 C   0  0  0  0  0  0  0  0  0  0  0  0
   -4.6732    2.7959    2.4599 O   0  0  0  0  0  0  0  0  0  0  0  0
   -7.8474    7.7161    1.9481 C   0  0  0  0  0  0  0  0  0  0  0  0
   -7.5307    8.4709    1.0373 O   0  0  0  0  0  0  0  0  0  0  0  0
   -8.8312    7.9827    2.8858 N   0  0  0  0  0  0  0  0  0  0  0  0
   -9.5917    9.1727    2.8938 C   0  0  0  0  0  0  0  0  0  0  0  0
   -9.8171    9.8660    4.0921 C   0  0  0  0  0  0  0  0  0  0  0  0
   -9.0779    9.3572    5.5700 Cl  0  0  0  0  0  0  0  0  0  0  0  0
  -10.5776   11.0398    4.0989 C   0  0  0  0  0  0  0  0  0  0  0  0
  -11.1528   11.5065    2.9167 C   0  0  0  0  0  0  0  0  0  0  0  0
  -10.9498   10.8131    1.7252 C   0  0  0  0  0  0  0  0  0  0  0  0
  -10.1607    9.6596    1.7105 C   0  0  0  0  0  0  0  0  0  0  0  0
    1.0957    1.2078   -0.9444 C   0  0  0  0  0  0  0  0  0  0  0  0
    1.9666    0.1193   -1.0872 C   0  0  0  0  0  0  0  0  0  0  0  0
    1.5121   -1.1733   -0.8653 C   0  0  0  0  0  0  0  0  0  0  0  0
    0.1762   -1.3742   -0.5271 C   0  0  0  0  0  0  0  0  0  0  0  0
  1  2  1  0
  2  3  2  0
  2 34  1  0
  3  4  1  0
  3 31  1  0
  4  5  1  0
  5  6  2  0
  5  7  1  0
  7  8  2  0
  7 11  1  0
  8  9  1  0
  8 19  1  0
  9 10  1  0
  9 12  1  0
 10 11  2  0
 12 13  2  0
 12 14  1  0
 14 15  2  0
 14 18  1  0
 15 16  1  0
 15 21  1  0
 16 17  2  0
 17 18  1  0
 18 19  1  0
 19 20  2  0
 21 22  2  0
 21 23  1  0
 23 24  1  0
 24 25  2  0
 24 30  1  0
 25 26  1  0
 25 27  1  0
 27 28  2  0
 28 29  1  0
 29 30  2  0
 31 32  2  0
 32 33  1  0
 33 34  2  0
M  END
$$$$
